<?xml version="1.0" encoding="UTF-8"?>

<!-- generated on 2024-07-27 18:29:40 by Eclipse SUMO netedit Version 1.20.0
-->

<additional xmlns:xsi="http://www.w3.org/2001/XMLSchema-instance" xsi:noNamespaceSchemaLocation="http://sumo.dlr.de/xsd/additional_file.xsd">
    <!-- APs -->
    <poly id="ap0_range" type="unknown" color="224,238,238" fill="1" lineWidth="2.00" layer="-1.00" shape="2300.000000,1500.000000 2290.570000,1574.610000 2262.890000,1644.530000 2218.690000,1705.360000 2160.750000,1753.300000 2092.710000,1785.320000 2018.840000,1799.410000 1943.790000,1794.690000 1872.270000,1771.450000 1808.770000,1731.150000 1757.290000,1676.340000 1721.070000,1610.440000 1702.370000,1537.600000 1702.370000,1462.400000 1721.070000,1389.560000 1757.290000,1323.660000 1808.770000,1268.850000 1872.270000,1228.550000 1943.790000,1205.310000 2018.840000,1200.590000 2092.710000,1214.680000 2160.750000,1246.700000 2218.690000,1294.640000 2262.890000,1355.470000 2290.570000,1425.390000 2300.000000,1500.000000"/>
    <poly id="ap0_elem" type="unknown" color="1,0,0" fill="1" layer="4" shape="2020.00,1500.00 2000.00,1520.00 1980.00,1500.00 2000.00,1480.00 2020.00,1500.00"/>

    <poly id="ap1_range" type="unknown" color="224,238,238" fill="1" lineWidth="2.00" layer="-1.00" shape="1800.00,1300.00 1790.57,1374.61 1762.89,1444.53 1718.69,1505.36 1660.75,1553.30 1592.71,1585.32 1518.84,1599.41 1443.79,1594.69 1372.27,1571.45 1308.77,1531.15 1257.29,1476.34 1221.07,1410.44 1202.37,1337.60 1202.37,1262.40 1221.07,1189.56 1257.29,1123.66 1308.77,1068.85 1372.27,1028.55 1443.79,1005.31 1518.84,1000.59 1592.71,1014.68 1660.75,1046.70 1718.69,1094.64 1762.89,1155.47 1790.57,1225.39 1800.00,1300.00"/>
    <poly id="ap1_elem" type="unknown" color="1,0,0" fill="1" layer="4" shape="1520.00,1300.00 1500.00,1320.00 1480.00,1300.00 1500.00,1280.00 1520.00,1300.00"/>

    <poly id="ap2_range" type="unknown" color="224,238,238" fill="1" lineWidth="2.00" layer="-1.00" shape="1300.00,1100.00 1290.57,1174.61 1262.89,1244.53 1218.69,1305.36 1160.75,1353.30 1092.71,1385.32 1018.84,1399.41 943.79,1394.69 872.27,1371.45 808.77,1331.15 757.29,1276.34 721.07,1210.44 702.37,1137.60 702.37,1062.40 721.07,989.56 757.29,923.66 808.77,868.85 872.27,828.55 943.79,805.31 1018.84,800.59 1092.71,814.68 1160.75,846.70 1218.69,894.64 1262.89,955.47 1290.57,1025.39 1300.00,1100.00"/>
    <poly id="ap2_elem" type="unknown" color="1,0,0" fill="1" layer="4" shape="1020.00,1100.00 1000.00,1120.00 980.00,1100.00 1000.00,1080.00 1020.00,1100.00"/>

    <poly id="ap3_range" type="unknown" color="224,238,238" fill="1" lineWidth="2.00" layer="-1.00" shape="900.00,800.00 890.57,874.61 862.89,944.53 818.69,1005.36 760.75,1053.30 692.71,1085.32 618.84,1099.41 543.79,1094.69 472.27,1071.45 408.77,1031.15 357.29,976.34 321.07,910.44 302.37,837.60 302.37,762.40 321.07,689.56 357.29,623.66 408.77,568.85 472.27,528.55 543.79,505.31 618.84,500.59 692.71,514.68 760.75,546.70 818.69,594.64 862.89,655.47 890.57,725.39 900.00,800.00"/>
    <poly id="ap3_elem" type="unknown" color="1,0,0" fill="1" layer="4" shape="620.00,800.00 600.00,820.00 580.00,800.00 600.00,780.00 620.00,800.00"/>

    <poly id="ap4_range" type="unknown" color="224,238,238" fill="1" lineWidth="2.00" layer="-1.00" shape="500.00,600.00 490.57,674.61 462.89,744.53 418.69,805.36 360.75,853.30 292.71,885.32 218.84,899.41 143.79,894.69 72.27,871.45 8.77,831.15 -42.71,776.34 -78.93,710.44 -97.63,637.60 -97.63,562.40 -78.93,489.56 -42.71,423.66 8.77,368.85 72.27,328.55 143.79,305.31 218.84,300.59 292.71,314.68 360.75,346.70 418.69,394.64 462.89,455.47 490.57,525.39 500.00,600.00"/>
    <poly id="ap4_elem" type="unknown" color="1,0,0" fill="1" layer="4" shape="220.00,600.00 200.00,620.00 180.00,600.00 200.00,580.00 220.00,600.00"/>
</additional>
