<?xml version="1.0" encoding="UTF-8"?>

<!-- generated on 2024-07-27 18:29:40 by Eclipse SUMO sumo Version 1.20.0
-->

<configuration xmlns:xsi="http://www.w3.org/2001/XMLSchema-instance" xsi:noNamespaceSchemaLocation="http://sumo.dlr.de/xsd/sumoConfiguration.xsd">

    <input>
        <net-file value="braga.net.xml"/>
        <route-files value="braga.rou.xml"/>
        <additional-files value="braga.poly.xml"/>
    </input>

</configuration>
