<trip id="0" depart="0.00" from="1136460176#0" to="542257430#0" via="458180197#0 846142552#0 1023136586#0 458180191#0 452322756#0 525729008#0 542258337#0 194926851#0 420907903 812949647#0 420907906 968513231#0 452322756#0 618990022#5 1106482765#2 1136460179#0 988984235#0 965833822#8 1136391284#0 972926362#0 1051744070#0 420907902#0 458180191#0 1136460181#0 569345538#0 618990022#5 194920158#8 1051744070#0 1308875366#2 569345540#3 5671115#2 618990022#2 1023136586#0 812949648#0 452322757#0 808190587#0 464516471#10 5671629#0 682360554#0 46443656#0 194926846#0 1267505842#0 663612305 965833822#4 542258337#0 194920158#5 1051744070#0 1027189507 499172074#4 5673497#0 458180191#0 441405435#0 1025734020#3 458180191#0 496989355#0 1207834765#0 420905130#0 569345537#0 1031879418#0 1308875366#2 569345531#0 452322756#3 -496986969#3 226041031 1136391283#0 460585328#4 194926846#0 972926362#0 499172074#4 618990022#5 496986969#0 663612305 569345544#0 1025734018#0 452322756#0 226041028#0 1027189510#0 420907903 542259076#0 1049845754#0 1023136586#0 420892271#0 618990022#5 -167922076#2 226041027#0 626514137#0 5671276#0 525729009#0 46521993#0 965833822#4 464516471#2 496993762#0 812949647#3 167922074#0 420907902#0 460585328#7 167922076#0 808190587#0 569345537#6 1207834765#0" />
<trip id="1" depart="36.00" from="1059314985#0" to="682360554#0" via="1051743127#0 1207834766 626514137#0 464516471#13 569345531#0 194926855#0 626514137#0 452322756#3 1049845754#0 846142553#0 497258108#0 194920158#5 569345537#9 46443656#3 1198594027 569345537#0 226041028#0 1136460179#0 1051743127#0 496986969#0 1222356566#0 1049888072 965833822#8 569345539#0 1117867040#1 420907903 1222356565#0 1136460181#0 1136391283#0 1025734018#0 384178816#3 420356172#0 125480075#0 1267505843#0 1049845754#0 458180191#6 196116976#4 812949647#3 1198594030#0 452322757#0 1025734020#3 5672036#0 1198594028#0 464516471#7 195743345#0 1207834765#0 420890028 46538371#0 420356172#0 542257430#0 441405435#0 1117867028 458180185#0 420907906 441405435#0 5672036#3 1198594027 1023136586#0 1207834766 1207834765#0 1025734020#0 1025734018#0 1308875366#2 968513229#0 1198594030#0 420890028 569345537#0 324118558#0 452322756#0 397795464#0 194920158#5 1198594027 5671115#5 452322757#0 569345531#0 420356172#0 1198594028#0 -542259076#5 569345537#0 1198594030#0 420905130#0 569345537#0 420890025#0 483360105#0 5671629#0 1136460179#0 965833822#1 1222356565#0 464516471#0 988984235#0 1117867028 1198594030#0 1043336433#0 397795464#0 464516471#10 569345537#9 972926362#0 420494981#0 5671709#0 420890025#0" />
<trip id="2" depart="72.00" from="525729008#0" to="-1136952921#1" via="382740985#3 1025734022#0 499172074#4 5672036#3 1207834766 452322757#0 464516471#4 5670867#0 483360105#0 420907906 441405435#0 420356172#0 1051744070#0 569345537#9 1117867028 384178816#0 496989355#3 541350711#3 226041027#0 717625447#0 717625447#3 226041028#0 458180184#0 384178816#3 5673497#0 420907908#0 5670114#0 420908138#0 525729008#0 569345540#0 5672036#3 -542259076#5 1023236297#0 196116976#4 499172074#0 569345539#0 397795463#0 968513231#0 814278019#0 1049845754#0 420890028 195743345#0 972926362#0 1106482765#2 525729008#0 1025734019#0 1308875367#0 195743336#2 1136460181#0 569345540#3 1051744070#0 569345535#0 5670114#0 505317789#0 384178816#3 46443656#0 541350711#0 497258108#0 452322756#0 464516471#7 1136391283#0 988984235#0 965833822#8 1025734020#0 1027189507 46443656#9 5672036#3 167922074#0 569345540#0 5671115#2 1198594027 196116976#1 452322756#0 1117867038#0 1308875367#0 717625447#3 1025734018#0 988984235#0 1027189510#0 618990022#2 496986969#0 497258108#2 460585328#7 1043336433#0 226041032#0 569345537#9 420908138#0 458180197#0 -496986969#3 1136460180#0 458180197#0 194920158#8 458180191#3 1198594028#0 1198594030#0 1051744070#0 496993762#0 458180191#3 1025734018#0 499172074#4" />
<trip id="3" depart="108.00" from="1025734020#3" to="458180191#0" via="541350711#0 496989355#3 458180185#0 1136460179#0 1117867038#0 397795463#0 46521993#0 420892273#0 496993762#0 808190587#0 420905130#0 814278021#0 5671276#0 452322757#0 682360554#0 1027189510#0 569345537#6 420890025#0 717625447#3 226041031 420908138#0 682360554#0 497258108#0 541350711#0 812949648#0 569345536#0 5671115#2 846142552#0 812949647#3 618990022#1 1117867028 226041028#0 569345536#0 1198594028#0 460585328#4 618990022#1 1025734020#3 194920158#8 441405435#0 46443656#9 196116976#4 5672036#0 1117867040#1 167922071#0 5672036#0 226041027#0 452322756#3 1165644579#0 569345537#0 618990022#2 1027189508 1117867040#1 420890029#0 194920158#8 808190587#0 569345544#0 588157337#0 464516471#2 441405435#0 5671709#0 420892271#0 1117867028 420907903 -167922076#2 5671115#2 46443656#7 195743210 497258108#2 458180185#0 499172074#4 496989355#0 397795463#0 384178816#0 -496986969#3 1025734020#3 965833822#1 1025734019#0 814278019#0 1165644579#0 497258108#2 420907908#0 420908138#0 1308875366#2 496989355#6 196116976#4 1207834766 194920158#8 569345540#3 1059314985#0 420890024#0 5670114#0 397795464#0 1051745205#0 420892271#0 1198594030#0 483360105#0 194926851#0 194926855#0 226041033 808190587#0" />
<trip id="4" depart="144.00" from="1027189509#2" to="496992867#0" via="965833822#1 965833822#8 505317789#0 1025734020#3 1106482765#2 226041033 1207834766 441405435#0 542257430#0 194920158#2 1165644579#0 420907908#0 1207834765#0 497258108#2 1031879418#0 542257430#0 1027189509#2 384178816#3 46538335#0 499172074#0 965833822#1 46443656#3 663612305 167922073#0 968513229#0 458180185#0 717625448#0 458180184#0 196116976#1 1136460179#0 618990022#2 5673497#0 972926362#0 569345535#0 1136460180#0 167922076#0 496989355#3 972926362#0 460585328#7 1222356565#0 972926362#0 5671115#2 808190587#0 1136460179#0 1106482765#2 1059314985#0 569345536#0 167922076#0 965833822#1 814278019#0 397795463#0 46443656#3 988984235#0 420890029#0 1207834765#0 420907903 1211049194#0 814278019#0 458180197#0 46443656#7 1136460181#0 496989355#6 46443656#9 458180184#0 420890025#0 965833822#8 542258337#0 1051744070#0 1198594030#0 1198594026#0 968513231#0 1198594030#0 1025734020#0 194920158#8 569345539#0 814278021#0 458180191#6 420892273#0 196116976#1 499172074#4 226041029#0 1207834766 458180191#0 226041029#0 46443656#0 569345539#0 497258108#2 542258337#0 1049888072 226041032#0 1051745205#0 420907903 384178816#0 1023236297#0 1117867040#1 420907908#0 717625447#3 195743210 1198594026#0 464516471#2" />
<trip id="5" depart="180.00" from="46443656#0" to="1059314985#0" via="452322757#0 496989355#3 525729008#0 542259076#0 717625448#0 226041031 5671709#0 569345536#0 1051744778#0 46443656#3 125480075#0 464516471#13 1025734020#3 1027189508 496989355#0 496989355#3 542259076#0 452322756#0 569345537#0 420907908#0 1117867040#1 1051744778#0 1117867028 420356172#0 420907906 226041030 382740985#0 464516471#7 452322756#0 1211049195#0 5672036#3 5670114#0 496989355#6 569345539#0 968513231#0 1211049194#0 812949647#3 -496986969#3 1136391283#0 458180191#0 460585328#7 1308875367#0 420890024#0 1117867028 1308875366#2 5672036#0 5672036#3 626514137#0 458180191#6 194920158#8 497258108#0 1136391284#0 420890029#0 1051743127#0 194920158#5 194920158#2 968513231#0 808190587#0 542258337#0 194920158#8 569345540#3 46443656#9 1049888072 569345544#0 1051745205#0 397795464#0 420908138#0 1198594026#0 458180191#3 167922071#0 1025734018#0 499172074#4 1267505842#0 458180190#0 717625447#0 1027189508 420892271#0 499172074#0 569345537#3 1136460180#0 46538335#0 420890025#0 226041023 458180190#0 1198594030#0 464516471#7 1043336433#0 -542259076#5 382740985#3 1198594027 1023236297#0 1117867028 5670114#0 458180184#0 460585328#4 46443656#3 167922073#0 167922073#0 226041027#0 194926855#0" />
<trip id="6" depart="216.00" from="226041030" to="194920158#8" via="814278021#0 458180191#6 452322756#0 420890028 1136460180#0 812949647#3 420890024#0 458180197#0 497258108#0 464516471#13 812949647#0 458180191#6 5670114#0 525729009#0 1025734022#0 420907908#0 167922071#0 541350711#0 1198594030#0 717625447#3 196116976#1 1136391284#0 1308875366#2 226041031 1165644579#0 125480075#0 1308875366#2 167922071#0 988984235#0 1136460176#0 382740985#3 1222356565#0 194920158#8 717625448#0 46443656#3 1117867038#0 496989355#3 497258108#0 167922076#0 167922071#0 814278019#0 420908138#0 420892273#0 5673497#0 1027189510#0 420907908#0 496986969#0 496986969#0 499172074#0 1049888072 1136460180#0 1021047632#0 814278019#0 1027189509#2 1198594027 420907902#0 499172074#8 1027189508 682360554#0 194926851#0 195743336#2 5671115#2 541350711#0 1222356566#0 1025734019#0 618990022#1 420905130#0 226041031 1136460179#0 125480075#0 496989355#3 717625447#3 384178816#3 1222356566#0 5671115#2 46443656#0 1136460179#0 384178816#0 569345537#0 1051745205#0 194920158#2 968513229#0 -525729008#5 1027189509#2 5671115#5 1025734018#0 814278019#0 1049888072 542259076#0 1025734019#0 846142552#0 420892273#0 1198594030#0 420890025#0 569345537#6 1308875366#2 420907903 1023136586#0 1043336433#0 569345537#3" />
<trip id="7" depart="252.00" from="195743345#0" to="452322757#0" via="5671629#0 1136460176#0 1211049195#0 46538371#0 420890029#0 420494981#0 812949647#3 569345537#6 458180185#0 46443656#3 1136460180#0 46443656#3 541350711#3 5671276#0 194926846#0 420890028 384178816#3 5671709#0 1207834765#0 464516471#10 1198594028#0 1207834765#0 420890024#0 1136460179#0 1059314985#0 808190587#0 226041029#0 458180185#0 1308875367#0 496993762#0 458180191#0 569345537#3 196116976#1 569345540#0 46443656#0 458180191#0 1136460176#0 194926851#0 464516471#10 420892271#0 965833822#1 1136391283#0 -167922076#2 965833822#8 541350711#3 1308875366#2 46443656#7 420890029#0 464516471#10 1198594029#0 496989355#0 717625447#0 569345538#0 -525729008#5 464516471#4 324118558#0 499172074#8 569345537#0 1222356565#0 1222356565#0 167922074#0 682360554#0 194920158#8 46538371#0 5671276#0 1117867038#0 499172074#0 5670867#0 569345537#6 194926846#0 812949647#3 464516471#2 525729008#0 1117867028 1207834765#0 1049845754#0 483360105#0 1025734020#0 569345544#0 1025734019#0 464516471#0 452322756#3 125480075#0 618990022#1 1308875367#0 5673497#0 420892273#0 812949647#0 5671276#0 569345537#0 464516471#10 1211049194#0 464516471#7 46538371#0 420356172#0 420356172#0 1136460180#0 1025734022#0 458180185#0 499172074#8" />
<trip id="8" depart="288.00" from="1049888072" to="439768850#0" via="384178816#0 542258337#0 569345537#6 569345537#0 46538335#0 1207834766 460585328#4 5672036#0 618990022#5 1027189510#0 1027189507 452322756#3 226041032#0 -542259076#5 1059314985#0 1051745205#0 1136391283#0 458180190#0 569345543#0 965833822#4 1267505842#0 167922073#0 569345536#0 496993762#0 226041028#0 988984235#0 194920158#5 717625447#3 46443656#7 846142553#0 1025734018#0 226041030 196116976#1 1136460179#0 1106482765#2 5671629#0 46443656#3 569345544#0 194920158#8 626514137#0 499172074#8 420890029#0 194926851#0 499172074#8 569345544#0 1136391283#0 384178816#0 -525729008#5 618990022#2 499172074#8 1043336433#0 1198594030#0 195743210 569345540#3 196116976#4 525729008#0 1051744070#0 5672036#3 -542259076#5 1117867028 1049845754#0 846142552#0 1025734018#0 420907906 5671629#0 1136460177#0 483360105#0 5671276#0 382740985#3 1136391283#0 458180197#0 46443656#0 226041029#0 420907906 1198594027 226041027#0 458180190#0 5670867#0 46443656#7 1021047632#0 541350711#3 1059314985#0 1025734018#0 1023136586#0 1025734019#0 458180191#6 226041028#0 1059314985#0 1025734020#3 464516471#7 968513231#0 717625448#0 324118554#0 460585328#7 397795463#0 569345540#3 812949648#0 569345537#3 569345539#0 965833822#4" />
<trip id="9" depart="324.00" from="420907908#0" to="420905130#0" via="1198594028#0 5671709#0 569345535#0 525729009#0 397795464#0 968513229#0 569345531#0 420890029#0 420494981#0 525729009#0 814278019#0 541350711#3 1211049194#0 226041027#0 420892273#0 1025734018#0 496986969#0 1106482765#2 1051744070#0 717625447#0 1051745205#0 1211049195#0 1027189510#0 464516471#10 1198594029#0 397795464#0 420905130#0 1308875366#2 464516471#4 1117867028 5671709#0 1025734019#0 541350711#3 1165644579#0 1207834766 46538371#0 499172074#8 1051743127#0 458180184#0 5671115#5 1059314985#0 460585328#4 226041031 1023236297#0 420890024#0 525729008#0 382740985#0 458180190#0 420892273#0 5671115#5 420907903 458180184#0 972926362#0 1043336433#0 1051744778#0 569345531#0 1136460181#0 420892271#0 569345540#3 1136391284#0 496986969#0 1136460176#0 420905130#0 194926851#0 497258108#0 626514137#0 588157337#0 496989355#3 452322756#3 194920158#5 717625448#0 458180197#0 1117867038#0 195743336#2 663612305 195743336#2 -542259076#5 965833822#4 1027189510#0 717625447#3 1023136586#0 324118554#0 420907908#0 542257430#0 663612305 569345537#0 464516471#10 569345531#0 46443656#7 46443656#7 1051744070#0 420890029#0 46443656#7 5671276#0 1051744070#0 541350711#3 420905130#0 496993762#0 663612305 618990022#2" />
<trip id="10" depart="360.00" from="588157337#0" to="464516471#4" via="420494981#0 46443656#0 1031879418#0 1021047632#0 167922071#0 717625447#0 846142553#0 420890028 1031879418#0 1222356565#0 458180197#0 1136391283#0 46538335#0 384178816#3 464516471#4 1136460177#0 195743336#2 458180184#0 167922074#0 965833822#8 5672036#3 1051744778#0 420908138#0 1308875366#2 1025734019#0 382740985#3 5671709#0 226041023 46521993#0 525729008#0 420890024#0 46443656#0 569345537#9 541350711#3 46443656#9 194920158#8 5673497#0 569345537#6 420494981#0 968513231#0 717625447#3 420890028 569345536#0 464516471#0 569345539#0 420907902#0 1198594028#0 420890024#0 1136460181#0 46443656#7 420356172#0 682360554#0 420905130#0 1027189508 5673497#0 1023136586#0 618990022#2 569345540#0 167922076#0 717625447#3 541350711#0 46538335#0 499172074#8 569345543#0 5671115#5 1211049194#0 420907908#0 464516471#2 1207834766 -167922076#2 569345537#6 569345537#0 1267505842#0 483360105#0 1023236297#0 458180197#0 525729009#0 167922073#0 569345540#0 420890024#0 420890029#0 458180197#0 458180191#0 382740985#3 226041028#0 460585328#7 497258108#0 542259076#0 464516471#0 1198594027 167922074#0 324118558#0 420907908#0 46443656#9 1198594027 194926846#0 195743345#0 1136460177#0 226041033 588157337#0" />
<trip id="11" depart="396.00" from="808190587#0" to="46443656#3" via="968513231#0 46443656#3 1051744778#0 1267505842#0 1031879418#0 505317789#0 496986969#0 195743210 420892271#0 420907902#0 569345537#3 968513231#0 812949647#3 464516471#4 464516471#2 464516471#10 682360554#0 496989355#3 717625447#3 497258108#0 46443656#7 525729009#0 1027189508 384178816#0 1021047632#0 464516471#0 420907906 1198594029#0 -496986969#3 382740985#0 167922073#0 167922074#0 497258108#2 464516471#0 1136460180#0 1198594028#0 452322756#0 1222356565#0 496993762#0 1117867040#1 499172074#4 1027189507 452322756#3 569345540#3 968513229#0 458180197#0 464516471#2 569345538#0 1136460177#0 618990022#5 420907908#0 46443656#9 1136391284#0 460585328#7 1198594030#0 1207834766 1207834765#0 1117867028 496989355#3 1051745205#0 420907908#0 988984235#0 194926851#0 226041033 717625448#0 542259076#0 5671629#0 569345537#3 460585328#7 420892271#0 812949648#0 1136460179#0 497258108#0 324118558#0 846142552#0 195743336#2 846142552#0 569345537#3 226041032#0 -525729008#5 1222356566#0 226041027#0 1211049194#0 464516471#13 1117867040#1 499172074#8 420892271#0 717625448#0 226041030 496989355#3 196116976#1 1025734018#0 988984235#0 1136460181#0 382740985#3 382740985#3 226041027#0 497258108#0 496989355#6 1027189508" />
<trip id="12" depart="432.00" from="-5672752#1" to="569345544#0" via="226041033 196116976#4 812949647#0 226041031 569345540#0 988984235#0 626514137#0 226041030 968513229#0 226041031 496989355#3 505317789#0 458180191#6 496986969#0 5671629#0 1198594026#0 458180191#0 1031879418#0 569345537#0 46443656#3 384178816#3 324118554#0 846142552#0 588157337#0 46443656#9 588157337#0 458180191#3 458180191#3 1023136586#0 496989355#6 812949647#3 -496986969#3 196116976#4 5672036#0 458180185#0 420908138#0 569345536#0 458180191#0 5670114#0 195743336#2 1025734018#0 5670867#0 814278019#0 1051743127#0 464516471#4 569345543#0 226041028#0 458180191#0 499172074#0 464516471#4 569345539#0 1059314985#0 663612305 717625447#3 420494981#0 196116976#4 682360554#0 420905130#0 420356172#0 1025734018#0 195743345#0 167922074#0 717625447#3 226041023 965833822#8 420907908#0 846142553#0 226041032#0 965833822#8 226041031 -542259076#5 569345537#3 618990022#2 5672036#3 1308875367#0 717625447#3 460585328#7 420890028 1267505843#0 496989355#6 420494981#0 569345540#0 525729009#0 125480075#0 1117867040#1 1222356566#0 384178816#0 226041033 682360554#0 541350711#3 717625447#3 196116976#1 458180197#0 1136460179#0 499172074#0 464516471#0 196116976#1 194920158#5 458180191#6 569345535#0" />
<trip id="13" depart="468.00" from="618990022#5" to="496986969#0" via="458180184#0 1136460179#0 846142552#0 194926846#0 194920158#5 1207834765#0 464516471#0 464516471#0 458180191#0 1198594026#0 496986969#0 1267505843#0 420907906 1211049194#0 458180184#0 1136460176#0 1051743127#0 420890024#0 1308875367#0 1117867040#1 5673497#0 1021047632#0 194926846#0 5670114#0 1308875367#0 194920158#2 814278019#0 496989355#0 1049845754#0 420908138#0 5671276#0 -525729008#5 569345535#0 569345537#6 1308875367#0 1207834765#0 569345539#0 483360105#0 505317789#0 1025734019#0 420905130#0 5672036#3 1051745205#0 125480075#0 464516471#2 965833822#1 1025734019#0 420907906 452322756#3 1106482765#2 226041033 1106482765#2 -525729008#5 496989355#0 812949647#0 1211049194#0 525729008#0 1025734022#0 5672036#3 1027189508 226041027#0 717625447#0 814278019#0 569345544#0 195743336#2 384178816#3 569345537#3 1023236297#0 525729009#0 397795464#0 458180190#0 525729008#0 814278019#0 194926846#0 808190587#0 1136460180#0 499172074#0 1198594027 1211049195#0 420890028 569345540#0 452322756#3 -525729008#5 5671709#0 1117867038#0 1222356566#0 496993762#0 525729008#0 1136460179#0 569345531#0 814278019#0 542258337#0 384178816#3 5671276#0 5671276#0 569345544#0 1211049195#0 846142552#0 194926846#0 464516471#7" />
<trip id="14" depart="504.00" from="1198594028#0" to="618990022#5" via="542258337#0 542259076#0 846142553#0 1198594027 496993762#0 1117867040#1 968513229#0 972926362#0 717625447#0 569345537#9 1165644579#0 226041023 682360554#0 569345531#0 420890025#0 46538335#0 420907903 167922074#0 1025734022#0 46538335#0 194920158#2 420907906 452322756#3 458180191#0 499172074#4 812949647#0 420907903 525729009#0 1023236297#0 1308875367#0 1198594026#0 1051744778#0 226041033 1211049195#0 626514137#0 1051744778#0 226041029#0 5671709#0 569345544#0 569345540#3 1049888072 483360105#0 384178816#0 46443656#3 1136460176#0 988984235#0 -167922076#2 1049845754#0 1211049195#0 384178816#3 618990022#2 458180190#0 1051744070#0 1136391283#0 5671629#0 46443656#9 1106482765#2 618990022#5 1027189507 1222356566#0 458180191#0 542257430#0 496989355#3 1117867040#1 226041029#0 618990022#5 1025734022#0 1051744070#0 1198594030#0 226041029#0 1211049194#0 460585328#4 1021047632#0 1165644579#0 464516471#0 1049888072 542258337#0 226041028#0 717625448#0 542258337#0 1198594029#0 464516471#0 196116976#1 812949647#3 1049888072 420905130#0 814278021#0 420907908#0 497258108#2 1117867028 1308875366#2 1027189508 968513231#0 1049888072 -542259076#5 458180191#3 1308875367#0 1136460179#0 420890025#0 324118554#0" />
<trip id="15" depart="540.00" from="1136952921#0" to="452322756#0" via="458180191#0 483360105#0 1136460181#0 452322757#0 464516471#7 569345535#0 420890024#0 496989355#3 1027189507 812949647#3 5673497#0 5671115#5 618990022#5 1117867040#1 542258337#0 542258337#0 1117867038#0 541350711#3 464516471#2 226041023 420907906 663612305 5672036#0 1136460177#0 194926846#0 1117867038#0 626514137#0 569345540#3 464516471#0 569345539#0 420907908#0 1211049194#0 569345536#0 846142553#0 1198594030#0 5671276#0 5670867#0 717625448#0 588157337#0 1117867028 226041027#0 458180197#0 420908138#0 1136391284#0 194926851#0 1021047632#0 1117867028 569345540#3 464516471#4 46443656#0 496986969#0 1136460179#0 194920158#8 194926846#0 1031879418#0 1136391284#0 420905130#0 194920158#5 1025734020#0 194920158#5 226041032#0 460585328#7 618990022#2 1136391284#0 196116976#4 1027189507 965833822#4 569345539#0 569345537#0 542257430#0 46443656#7 196116976#1 1027189508 968513231#0 717625447#3 808190587#0 1051745205#0 497258108#0 499172074#0 420905130#0 569345540#0 812949648#0 226041031 458180190#0 458180197#0 452322757#0 618990022#2 226041030 1198594028#0 194920158#2 1211049195#0 569345544#0 464516471#0 194926855#0 569345543#0 496989355#0 226041027#0 1136391284#0 420907903 452322756#0" />
<trip id="16" depart="576.00" from="420890025#0" to="125480075#0" via="46538335#0 397795464#0 420890025#0 5671629#0 569345536#0 464516471#2 812949648#0 808190587#0 814278019#0 569345540#0 1027189510#0 1117867028 569345537#6 569345539#0 458180191#3 1308875366#2 497258108#2 569345536#0 195743345#0 46538335#0 1031879418#0 382740985#3 46443656#0 965833822#1 -496986969#3 420905130#0 717625447#3 195743345#0 460585328#4 460585328#4 -542259076#5 569345544#0 1051743127#0 460585328#4 1117867028 452322756#3 226041023 1027189509#2 460585328#4 483360105#0 458180191#3 -496986969#3 1308875367#0 1198594027 618990022#2 499172074#0 194920158#8 1198594027 384178816#0 1136391283#0 1059314985#0 499172074#0 458180191#6 1059314985#0 717625447#3 965833822#8 972926362#0 569345540#0 972926362#0 420890029#0 1207834766 1025734019#0 1117867038#0 194926851#0 814278019#0 1025734022#0 464516471#13 814278019#0 846142553#0 965833822#8 460585328#7 420892273#0 1027189507 1031879418#0 988984235#0 542258337#0 569345535#0 -542259076#5 464516471#13 -525729008#5 194926846#0 588157337#0 1027189510#0 -525729008#5 618990022#2 542259076#0 226041028#0 846142552#0 5672036#3 972926362#0 195743210 464516471#4 808190587#0 968513229#0 420907906 618990022#1 1023236297#0 626514137#0 5670114#0 1207834766" />
<trip id="17" depart="612.00" from="194920158#8" to="1023236297#0" via="541350711#3 525729008#0 808190587#0 569345540#3 1198594029#0 458180191#6 226041023 1222356566#0 1021047632#0 -542259076#5 226041029#0 618990022#5 195743210 1267505842#0 1059314985#0 458180190#0 5670867#0 420907906 1117867028 812949648#0 1051744070#0 5670114#0 196116976#4 1211049195#0 464516471#10 458180191#0 420908138#0 420890029#0 972926362#0 420890024#0 569345538#0 420890024#0 499172074#4 384178816#0 458180191#3 226041030 460585328#7 965833822#1 1031879418#0 196116976#1 499172074#8 1027189508 1027189508 452322756#0 46443656#9 814278019#0 1027189508 1308875366#2 458180191#6 1025734018#0 1027189509#2 460585328#4 569345537#6 812949648#0 1023136586#0 1051743127#0 846142553#0 812949647#0 1051743127#0 125480075#0 1051745205#0 1106482765#2 1198594028#0 -496986969#3 682360554#0 5672036#0 569345537#0 1027189508 618990022#1 452322756#0 1051744070#0 499172074#0 626514137#0 452322756#3 1027189509#2 194920158#5 1025734022#0 452322757#0 496989355#6 1021047632#0 226041031 420892271#0 196116976#4 5671115#5 988984235#0 460585328#4 167922071#0 324118558#0 496989355#0 1051744070#0 717625448#0 1198594028#0 1051743127#0 420356172#0 1025734020#3 452322757#0 464516471#10 812949647#0 1025734022#0 1051745205#0" />
<trip id="18" depart="648.00" from="717625447#0" to="569345543#0" via="5672036#3 965833822#1 420890028 194920158#8 5671115#5 194926855#0 1059314985#0 542259076#0 1025734019#0 846142553#0 496989355#3 397795464#0 441405435#0 1267505843#0 1136460177#0 717625447#0 167922073#0 226041023 46521993#0 1136460177#0 569345535#0 968513229#0 525729009#0 1027189508 1267505842#0 717625447#3 618990022#1 464516471#2 1106482765#2 5672036#0 626514137#0 226041032#0 569345538#0 384178816#3 812949647#0 -525729008#5 420356172#0 464516471#10 1198594030#0 5672036#3 1106482765#2 -542259076#5 569345536#0 1308875367#0 441405435#0 618990022#5 808190587#0 384178816#3 167922074#0 569345540#3 420907902#0 420892273#0 569345535#0 525729009#0 460585328#7 167922074#0 1308875367#0 5672036#0 497258108#2 618990022#5 717625447#0 1051744070#0 194920158#5 420890024#0 682360554#0 5671115#5 496989355#6 5670114#0 420907902#0 499172074#0 496993762#0 497258108#0 542259076#0 965833822#4 226041031 569345543#0 195743336#2 167922074#0 499172074#4 965833822#1 1051743127#0 226041032#0 420907908#0 1027189507 542257430#0 226041028#0 1023136586#0 663612305 382740985#0 397795464#0 499172074#4 496989355#3 397795464#0 458180191#6 569345539#0 5671276#0 420907903 194926846#0 226041031 496989355#6" />
<trip id="19" depart="684.00" from="452322756#0" to="420899372#0" via="1043336433#0 384178816#0 569345536#0 226041033 194926855#0 1025734022#0 569345535#0 497258108#2 542257430#0 226041030 717625448#0 226041029#0 496989355#0 569345531#0 1027189510#0 1023236297#0 569345537#3 458180185#0 -496986969#3 1049888072 496989355#3 464516471#10 194926855#0 1051744070#0 483360105#0 1198594028#0 988984235#0 5673497#0 46443656#0 5672036#3 846142552#0 1023136586#0 1267505843#0 542257430#0 1031879418#0 541350711#0 1211049194#0 965833822#8 464516471#4 -167922076#2 1198594030#0 1051744778#0 420890029#0 458180191#6 5673497#0 452322756#3 5672036#3 846142552#0 1207834766 972926362#0 458180197#0 452322756#0 420907903 1043336433#0 1207834765#0 569345531#0 5671629#0 814278019#0 -542259076#5 324118554#0 226041028#0 460585328#4 46538335#0 1021047632#0 226041031 1308875367#0 397795464#0 1051743127#0 541350711#3 569345540#0 542259076#0 1049888072 1136460179#0 1027189507 499172074#8 1051744070#0 618990022#2 1267505843#0 569345540#3 167922074#0 1136460176#0 5671115#2 452322757#0 1136391284#0 1117867040#1 682360554#0 458180191#3 194920158#2 167922076#0 420907906 195743210 420905130#0 46521993#0 1021047632#0 1136460177#0 1222356566#0 1051743127#0 717625447#3 196116976#1 1207834766" />
<trip id="20" depart="720.00" from="464516471#13" to="5670114#0" via="814278021#0 1051744778#0 569345544#0 1049845754#0 1211049195#0 460585328#7 420907908#0 968513231#0 5670114#0 541350711#3 968513231#0 1222356566#0 808190587#0 812949647#0 626514137#0 384178816#3 1059314985#0 1308875367#0 1117867028 496986969#0 420907902#0 397795464#0 1025734020#3 226041029#0 569345540#0 5671629#0 46443656#0 5672036#0 682360554#0 542259076#0 194920158#2 499172074#8 -496986969#3 1051744778#0 1222356566#0 226041028#0 1267505842#0 1051745205#0 1222356565#0 397795463#0 1051744070#0 965833822#4 1023236297#0 -542259076#5 452322757#0 1267505843#0 1308875366#2 5671115#5 1027189509#2 46538335#0 1211049194#0 5673497#0 458180190#0 420905130#0 496989355#6 965833822#4 1267505843#0 5673497#0 569345537#9 1051744778#0 1165644579#0 1136460177#0 5671115#5 226041033 420892271#0 5671115#2 618990022#2 1136460177#0 496986969#0 814278021#0 812949647#3 420907908#0 5671709#0 5671629#0 464516471#2 441405435#0 1051745205#0 167922073#0 226041030 1267505843#0 460585328#4 1025734020#0 1136460179#0 226041029#0 1059314985#0 569345544#0 1267505843#0 -167922076#2 195743210 499172074#4 1267505843#0 972926362#0 194920158#2 1267505842#0 569345540#3 1027189509#2 542258337#0 5671709#0 1211049195#0 1136391284#0" />
<trip id="21" depart="756.00" from="542259076#0" to="5670867#0" via="226041029#0 496989355#0 569345537#0 458180197#0 965833822#1 125480075#0 5673497#0 569345537#9 5671709#0 1025734020#3 569345537#6 968513229#0 717625447#0 1059314985#0 420905130#0 167922074#0 420890028 167922073#0 569345537#6 226041031 5671276#0 505317789#0 420908138#0 505317789#0 195743336#2 965833822#8 505317789#0 46538371#0 812949647#3 1051743127#0 717625448#0 196116976#1 5671629#0 464516471#4 5671629#0 167922076#0 226041028#0 420892273#0 542258337#0 458180190#0 46443656#7 460585328#4 968513231#0 458180190#0 195743345#0 1117867040#1 420892271#0 420907902#0 626514137#0 497258108#0 458180197#0 542259076#0 420892273#0 1025734020#0 812949647#3 1136391284#0 569345544#0 226041027#0 618990022#5 1136460176#0 812949647#3 1051743127#0 196116976#4 226041033 452322756#3 226041027#0 194920158#8 1049845754#0 420356172#0 194926846#0 420890025#0 452322756#3 464516471#4 125480075#0 1211049195#0 5673497#0 196116976#4 1136391283#0 194920158#8 483360105#0 420890028 1136460181#0 460585328#7 420356172#0 569345544#0 1308875366#2 420494981#0 1051744778#0 1049888072 965833822#1 458180185#0 226041033 420907902#0 420908138#0 5671115#5 1136391283#0 618990022#2 1198594029#0 965833822#8 1136391284#0" />
<trip id="22" depart="792.00" from="5672036#0" to="717625447#0" via="194926846#0 46443656#0 569345537#6 1198594027 541350711#3 420905130#0 965833822#8 226041030 569345535#0 499172074#8 525729008#0 1023236297#0 195743210 226041029#0 420907902#0 460585328#4 420907906 968513229#0 458180184#0 194926846#0 420905130#0 5671115#5 1267505843#0 397795463#0 167922071#0 1059314985#0 452322756#0 569345535#0 420890028 1211049195#0 626514137#0 1021047632#0 46521993#0 618990022#2 226041029#0 588157337#0 569345538#0 968513231#0 1049888072 420494981#0 5672036#3 460585328#4 -525729008#5 814278019#0 682360554#0 1049888072 525729009#0 226041030 226041029#0 420907903 483360105#0 1198594028#0 1308875366#2 1136391283#0 46538335#0 194926846#0 226041028#0 452322757#0 569345535#0 420890025#0 1267505843#0 1198594026#0 397795464#0 1027189507 5670114#0 1222356566#0 968513231#0 846142552#0 505317789#0 226041032#0 497258108#0 384178816#0 -496986969#3 496993762#0 5671115#2 196116976#1 1207834766 226041023 1267505843#0 -542259076#5 -167922076#2 965833822#8 1198594030#0 968513229#0 618990022#5 1198594030#0 569345538#0 226041031 1117867038#0 542257430#0 1023136586#0 1023236297#0 1198594026#0 5672036#3 717625448#0 569345531#0 382740985#0 167922074#0 194926846#0 458180185#0" />