<?xml version="1.0" encoding="UTF-8"?>

<!-- generated on 2024-07-27 18:29:40 by Eclipse SUMO netedit Version 1.20.0
-->

<additional xmlns:xsi="http://www.w3.org/2001/XMLSchema-instance" xsi:noNamespaceSchemaLocation="http://sumo.dlr.de/xsd/additional_file.xsd">
    <!-- APs -->
    <poly id="ap0_range" type="unknown" color="224,238,238" fill="1" lineWidth="2.00" layer="-1.00" shape="2300.000000,1500.000000 2290.570000,1574.610000 2262.890000,1644.530000 2218.690000,1705.360000 2160.750000,1753.300000 2092.710000,1785.320000 2018.840000,1799.410000 1943.790000,1794.690000 1872.270000,1771.450000 1808.770000,1731.150000 1757.290000,1676.340000 1721.070000,1610.440000 1702.370000,1537.600000 1702.370000,1462.400000 1721.070000,1389.560000 1757.290000,1323.660000 1808.770000,1268.850000 1872.270000,1228.550000 1943.790000,1205.310000 2018.840000,1200.590000 2092.710000,1214.680000 2160.750000,1246.700000 2218.690000,1294.640000 2262.890000,1355.470000 2290.570000,1425.390000 2300.000000,1500.000000"/>
    <poly id="ap0_elem" type="unknown" color="1,0,0" fill="1" layer="4" shape="2020.00,1500.00 2000.00,1520.00 1980.00,1500.00 2000.00,1480.00 2020.00,1500.00"/>

    <poly id="ap1_range" type="unknown" color="224,238,238" fill="1" lineWidth="2.00" layer="-1" shape="2050.00,1400.00 2040.57,1474.61 2012.89,1544.53 1968.69,1605.36 1910.75,1653.30 1842.71,1685.32 1768.84,1699.41 1693.79,1694.69 1622.27,1671.45 1558.77,1631.15 1507.29,1576.34 1471.07,1510.44 1452.37,1437.60 1452.37,1362.40 1471.07,1289.56 1507.29,1223.66 1558.77,1168.85 1622.27,1128.55 1693.79,1105.31 1768.84,1100.59 1842.71,1114.68 1910.75,1146.70 1968.69,1194.64 2012.89,1255.47 2040.57,1325.39 2050.00,1400.00"/>
    <poly id="ap1_elem" type="unknown" color="1,0,0" fill="1" layer="4" shape="1770.00,1400.00 1750.00,1420.00 1730.00,1400.00 1750.00,1380.00 1770.00,1400.00"/>

    <poly id="ap2_range" type="unknown" color="224,238,238" fill="1" lineWidth="2.00" layer="-1.00" shape="1800.00,1300.00 1790.57,1374.61 1762.89,1444.53 1718.69,1505.36 1660.75,1553.30 1592.71,1585.32 1518.84,1599.41 1443.79,1594.69 1372.27,1571.45 1308.77,1531.15 1257.29,1476.34 1221.07,1410.44 1202.37,1337.60 1202.37,1262.40 1221.07,1189.56 1257.29,1123.66 1308.77,1068.85 1372.27,1028.55 1443.79,1005.31 1518.84,1000.59 1592.71,1014.68 1660.75,1046.70 1718.69,1094.64 1762.89,1155.47 1790.57,1225.39 1800.00,1300.00"/>
    <poly id="ap2_elem" type="unknown" color="1,0,0" fill="1" layer="4" shape="1520.00,1300.00 1500.00,1320.00 1480.00,1300.00 1500.00,1280.00 1520.00,1300.00"/>

    <poly id="ap3_range" type="unknown" color="224,238,238" fill="1" lineWidth="2.00" layer="-1.00" shape="1550.00,1200.00 1540.57,1274.61 1512.89,1344.53 1468.69,1405.36 1410.75,1453.30 1342.71,1485.32 1268.84,1499.41 1193.79,1494.69 1122.27,1471.45 1058.77,1431.15 1007.29,1376.34 971.07,1310.44 952.37,1237.60 952.37,1162.40 971.07,1089.56 1007.29,1023.66 1058.77,968.85 1122.27,928.55 1193.79,905.31 1268.84,900.59 1342.71,914.68 1410.75,946.70 1468.69,994.64 1512.89,1055.47 1540.57,1125.39 1550.00,1200.00"/>
    <poly id="ap3_elem" type="unknown" color="1,0,0" fill="1" layer="4" shape="1270.00,1200.00 1250.00,1220.00 1230.00,1200.00 1250.00,1180.00 1270.00,1200.00"/>

    <poly id="ap4_range" type="unknown" color="224,238,238" fill="1" lineWidth="2.00" layer="-1.00" shape="1300.00,1100.00 1290.57,1174.61 1262.89,1244.53 1218.69,1305.36 1160.75,1353.30 1092.71,1385.32 1018.84,1399.41 943.79,1394.69 872.27,1371.45 808.77,1331.15 757.29,1276.34 721.07,1210.44 702.37,1137.60 702.37,1062.40 721.07,989.56 757.29,923.66 808.77,868.85 872.27,828.55 943.79,805.31 1018.84,800.59 1092.71,814.68 1160.75,846.70 1218.69,894.64 1262.89,955.47 1290.57,1025.39 1300.00,1100.00"/>
    <poly id="ap4_elem" type="unknown" color="1,0,0" fill="1" layer="4" shape="1020.00,1100.00 1000.00,1120.00 980.00,1100.00 1000.00,1080.00 1020.00,1100.00"/>

    <poly id="ap5_range" type="unknown" color="224,238,238" fill="1" lineWidth="2.00" layer="-1.00" shape="1100.00,950.00 1090.57,1024.61 1062.89,1094.53 1018.69,1155.36 960.75,1203.30 892.71,1235.32 818.84,1249.41 743.79,1244.69 672.27,1221.45 608.77,1181.15 557.29,1126.34 521.07,1060.44 502.37,987.60 502.37,912.40 521.07,839.56 557.29,773.66 608.77,718.85 672.27,678.55 743.79,655.31 818.84,650.59 892.71,664.68 960.75,696.70 1018.69,744.64 1062.89,805.47 1090.57,875.39 1100.00,950.00"/>
    <poly id="ap5_elem" type="unknown" color="1,0,0" fill="1" layer="4" shape="820.00,950.00 800.00,970.00 780.00,950.00 800.00,930.00 820.00,950.00"/>

    <poly id="ap6_range" type="unknown" color="224,238,238" fill="1" lineWidth="2.00" layer="-1.00" shape="900.00,800.00 890.57,874.61 862.89,944.53 818.69,1005.36 760.75,1053.30 692.71,1085.32 618.84,1099.41 543.79,1094.69 472.27,1071.45 408.77,1031.15 357.29,976.34 321.07,910.44 302.37,837.60 302.37,762.40 321.07,689.56 357.29,623.66 408.77,568.85 472.27,528.55 543.79,505.31 618.84,500.59 692.71,514.68 760.75,546.70 818.69,594.64 862.89,655.47 890.57,725.39 900.00,800.00"/>
    <poly id="a6_elem" type="unknown" color="1,0,0" fill="1" layer="4" shape="620.00,800.00 600.00,820.00 580.00,800.00 600.00,780.00 620.00,800.00"/>

    <poly id="ap7_range" type="unknown" color="224,238,238" fill="1" lineWidth="2.00" layer="-1.00" shape="700.00,700.00 690.57,774.61 662.89,844.53 618.69,905.36 560.75,953.30 492.71,985.32 418.84,999.41 343.79,994.69 272.27,971.45 208.77,931.15 157.29,876.34 121.07,810.44 102.37,737.60 102.37,662.40 121.07,589.56 157.29,523.66 208.77,468.85 272.27,428.55 343.79,405.31 418.84,400.59 492.71,414.68 560.75,446.70 618.69,494.64 662.89,555.47 690.57,625.39 700.00,700.00"/>
    <poly id="ap7_elem" type="unknown" color="1,0,0" fill="1" layer="4" shape="420.00,700.00 400.00,720.00 380.00,700.00 400.00,680.00 420.00,700.00"/>

    <poly id="ap8_range" type="unknown" color="224,238,238" fill="1" lineWidth="2.00" layer="-1.00" shape="500.00,600.00 490.57,674.61 462.89,744.53 418.69,805.36 360.75,853.30 292.71,885.32 218.84,899.41 143.79,894.69 72.27,871.45 8.77,831.15 -42.71,776.34 -78.93,710.44 -97.63,637.60 -97.63,562.40 -78.93,489.56 -42.71,423.66 8.77,368.85 72.27,328.55 143.79,305.31 218.84,300.59 292.71,314.68 360.75,346.70 418.69,394.64 462.89,455.47 490.57,525.39 500.00,600.00"/>
    <poly id="ap8_elem" type="unknown" color="1,0,0" fill="1" layer="4" shape="220.00,600.00 200.00,620.00 180.00,600.00 200.00,580.00 220.00,600.00"/>
</additional>
