<?xml version="1.0" encoding="UTF-8"?>

<!-- generated on 2024-09-02 22:01:54 by Eclipse SUMO polyconvert Version 1.20.0
-->

<additional xmlns:xsi="http://www.w3.org/2001/XMLSchema-instance" xsi:noNamespaceSchemaLocation="http://sumo.dlr.de/xsd/additional_file.xsd">
    <!-- APs -->
    <poly id="ap0_elem" type="unknown" color="1,0,0" fill="1" layer="4" shape="320.00,900.00 300.00,920.00 280.00,900.00 300.00,880.00 320.00,900.00"/>
    <poly id="ap0_range" type="unknown" color="224,238,238" fill="1" layer="-1" shape="600.00,900.00 590.57,974.61 562.89,1044.53 518.69,1105.36 460.75,1153.30 392.71,1185.32 318.84,1199.41 243.79,1194.69 172.27,1171.45 108.77,1131.15 57.29,1076.34 21.07,1010.44 2.37,937.60 2.37,862.40 21.07,789.56 57.29,723.66 108.77,668.85 172.27,628.55 243.79,605.31 318.84,600.59 392.71,614.68 460.75,646.70 518.69,694.64 562.89,755.47 590.57,825.39 600.00,900.00"/>

    <poly id="ap1_elem" type="unknown" color="1,0,0" fill="1" layer="4" shape="720.00,900.00 700.00,920.00 680.00,900.00 700.00,880.00 720.00,900.00"/>
    <poly id="ap1_range" type="unknown" color="224,238,238" fill="1" layer="-1" shape="1000.00,900.00 990.57,974.61 962.89,1044.53 918.69,1105.36 860.75,1153.30 792.71,1185.32 718.84,1199.41 643.79,1194.69 572.27,1171.45 508.77,1131.15 457.29,1076.34 421.07,1010.44 402.37,937.60 402.37,862.40 421.07,789.56 457.29,723.66 508.77,668.85 572.27,628.55 643.79,605.31 718.84,600.59 792.71,614.68 860.75,646.70 918.69,694.64 962.89,755.47 990.57,825.39 1000.00,900.00"/>

    <poly id="ap2_elem" type="unknown" color="1,0,0" fill="1" layer="4" shape="1120.00,900.00 1100.00,920.00 1080.00,900.00 1100.00,880.00 1120.00,900.00"/>
    <poly id="ap2_range" type="unknown" color="224,238,238" fill="1" layer="-1" shape="1400.00,900.00 1390.57,974.61 1362.89,1044.53 1318.69,1105.36 1260.75,1153.30 1192.71,1185.32 1118.84,1199.41 1043.79,1194.69 972.27,1171.45 908.77,1131.15 857.29,1076.34 821.07,1010.44 802.37,937.60 802.37,862.40 821.07,789.56 857.29,723.66 908.77,668.85 972.27,628.55 1043.79,605.31 1118.84,600.59 1192.71,614.68 1260.75,646.70 1318.69,694.64 1362.89,755.47 1390.57,825.39 1400.00,900.00"/>

    <poly id="ap3_elem" type="unknown" color="1,0,0" fill="1" layer="4" shape="520.00,600.00 500.00,620.00 480.00,600.00 500.00,580.00 520.00,600.00"/>
    <poly id="ap3_range" type="unknown" color="180,238,238" fill="1" layer="-1" shape="800.00,600.00 790.57,674.61 762.89,744.53 718.69,805.36 660.75,853.30 592.71,885.32 518.84,899.41 443.79,894.69 372.27,871.45 308.77,831.15 257.29,776.34 221.07,710.44 202.37,637.60 202.37,562.40 221.07,489.56 257.29,423.66 308.77,368.85 372.27,328.55 443.79,305.31 518.84,300.59 592.71,314.68 660.75,346.70 718.69,394.64 762.89,455.47 790.57,525.39 800.00,600.00"/>

    <poly id="ap4_elem" type="unknown" color="1,0,0" fill="1" layer="4" shape="920.00,600.00 900.00,620.00 880.00,600.00 900.00,580.00 920.00,600.00"/>
    <poly id="ap4_range" type="unknown" color="180,238,238" fill="1" layer="-1" shape="1200.00,600.00 1190.57,674.61 1162.89,744.53 1118.69,805.36 1060.75,853.30 992.71,885.32 918.84,899.41 843.79,894.69 772.27,871.45 708.77,831.15 657.29,776.34 621.07,710.44 602.37,637.60 602.37,562.40 621.07,489.56 657.29,423.66 708.77,368.85 772.27,328.55 843.79,305.31 918.84,300.59 992.71,314.68 1060.75,346.70 1118.69,394.64 1162.89,455.47 1190.57,525.39 1200.00,600.00"/>

    <poly id="ap5_elem" type="unknown" color="1,0,0" fill="1" layer="4" shape="1320.00,600.00 1300.00,620.00 1280.00,600.00 1300.00,580.00 1320.00,600.00"/>
    <poly id="ap5_range" type="unknown" color="180,238,238" fill="1" layer="-1" shape="1600.00,600.00 1590.57,674.61 1562.89,744.53 1518.69,805.36 1460.75,853.30 1392.71,885.32 1318.84,899.41 1243.79,894.69 1172.27,871.45 1108.77,831.15 1057.29,776.34 1021.07,710.44 1002.37,637.60 1002.37,562.40 1021.07,489.56 1057.29,423.66 1108.77,368.85 1172.27,328.55 1243.79,305.31 1318.84,300.59 1392.71,314.68 1460.75,346.70 1518.69,394.64 1562.89,455.47 1590.57,525.39 1600.00,600.00"/>

    <poly id="ap6_elem" type="unknown" color="1,0,0" fill="1" layer="4" shape="420.00,300.00 400.00,320.00 380.00,300.00 400.00,280.00 420.00,300.00"/>
    <poly id="ap6_range" type="unknown" color="224,238,238" fill="1" layer="-1" shape="700.00,300.00 690.57,374.61 662.89,444.53 618.69,505.36 560.75,553.30 492.71,585.32 418.84,599.41 343.79,594.69 272.27,571.45 208.77,531.15 157.29,476.34 121.07,410.44 102.37,337.60 102.37,262.40 121.07,189.56 157.29,123.66 208.77,68.85 272.27,28.55 343.79,5.31 418.84,0.59 492.71,14.68 560.75,46.70 618.69,94.64 662.89,155.47 690.57,225.39 700.00,300.00"/>

    <poly id="ap7_elem" type="unknown" color="1,0,0" fill="1" layer="4" shape="820.00,300.00 800.00,320.00 780.00,300.00 800.00,280.00 820.00,300.00"/>
    <poly id="ap7_range" type="unknown" color="224,238,238" fill="1" layer="-1" shape="1100.00,300.00 1090.57,374.61 1062.89,444.53 1018.69,505.36 960.75,553.30 892.71,585.32 818.84,599.41 743.79,594.69 672.27,571.45 608.77,531.15 557.29,476.34 521.07,410.44 502.37,337.60 502.37,262.40 521.07,189.56 557.29,123.66 608.77,68.85 672.27,28.55 743.79,5.31 818.84,0.59 892.71,14.68 960.75,46.70 1018.69,94.64 1062.89,155.47 1090.57,225.39 1100.00,300.00"/>

    <poly id="ap8_elem" type="unknown" color="1,0,0" fill="1" layer="4" shape="1220.00,300.00 1200.00,320.00 1180.00,300.00 1200.00,280.00 1220.00,300.00"/>
    <poly id="ap8_range" type="unknown" color="224,238,238" fill="1" layer="-1" shape="1500.00,300.00 1490.57,374.61 1462.89,444.53 1418.69,505.36 1360.75,553.30 1292.71,585.32 1218.84,599.41 1143.79,594.69 1072.27,571.45 1008.77,531.15 957.29,476.34 921.07,410.44 902.37,337.60 902.37,262.40 921.07,189.56 957.29,123.66 1008.77,68.85 1072.27,28.55 1143.79,5.31 1218.84,0.59 1292.71,14.68 1360.75,46.70 1418.69,94.64 1462.89,155.47 1490.57,225.39 1500.00,300.00"/>

</additional>
