<?xml version="1.0" encoding="UTF-8"?>

<!-- generated on 2024-09-11 23:16:57.721141 by randomTrips.py cb87dbd69
<configuration>
    <net-file value="sumo/manhattan/manhattan.net.xml"/>
    <route-file value="routes.rou.xml"/>
    <random value="True"/>
    <min-distance value="5000.0"/>
    <intermediate value="10"/>
    <period value="360.0"/>
</configuration>

python /home/rubensas/UM/utils/sumo/tools/randomTrips.py -n sumo/manhattan/manhattan.net.xml -\-route-file routes.rou.xml -\-end 3600 -\-period 36 -\-min-distance 5000 -i 10 -\-random

-->

<routes xmlns:xsi="http://www.w3.org/2001/XMLSchema-instance" xsi:noNamespaceSchemaLocation="http://sumo.dlr.de/xsd/routes_file.xsd">
    <vehicle id="0" depart="1.00">
        <route edges="1207834766 1198594029#0 1198594028#0 1051744778#0 968513231#0 968513229#0 1021047632#0 194926855#0 -542259076#5 125480075#0 1198594026#0 1207834766 1198594029#0 194926851#0 846142553#0 420494981#0 1051744070#0 464516471#4 464516471#7 464516471#10 542258337#0 1051745205#0 569345540#3 167922071#0 483360105#0 397795463#0 682360554#0 397795464#0 569345544#0 525729008#0 125480075#0 1198594026#0 1207834766 1198594029#0 194926851#0 1198594030#0 1027189508 452322756#3 1136391284#0 420907908#0 968513231#0 968513229#0 1021047632#0 194926855#0 525729009#0 1025734022#0 226041023 1031879418#0 505317789#0 542257430#0 195743345#0 420907902#0 125480075#0 1198594026#0 1207834766 1198594029#0 194926851#0 1198594030#0 1027189508 452322756#3 1136391283#0 460585328#4 5671115#2 5671115#5 663612305 1049888072 420907903 46443656#7 1025734020#3 814278019#0 1136391284#0 846142552#0 846142553#0 420494981#0 1051744070#0 464516471#4 464516471#7 464516471#10 464516471#13 1211049194#0 569345537#0 569345537#3 569345537#6 569345537#9 541350711#0 541350711#3 496986969#0 5672752#0 -5672752#1 -496986969#3 497258109#0 -497258109#2 496986969#0 496989355#0 496989355#3 499172074#4 196116976#4 1267505843#0 1267505842#0 812949647#0 812949647#3 420892271#0 5671276#0 1025734018#0 1025734019#0 1025734020#0 1025734020#3 814278019#0 1136391284#0 846142552#0 1198594030#0 1027189508 1027189507 1049888072 420907903 420907906 1207834765#0 1027189510#0 1027189509#2 812949647#3 420892271#0 5671276#0 1025734018#0 1025734019#0 194920158#5 194920158#8 1136460176#0 420908138#0 5670867#0 458180190#0 384178816#0 5671629#0 496993762#0 1051743127#0"/>
    </vehicle>
    <vehicle id="1" depart="1.00">
        <route edges="464516471#10 542258337#0 1051745205#0 569345540#3 167922071#0 483360105#0 397795463#0 1117867040#1 194926851#0 846142553#0 420494981#0 1051744070#0 464516471#4 464516471#7 464516471#10 464516471#13 1211049194#0 569345537#0 569345537#3 420905130#0 382740985#3 1023136586#0 1059314985#0 226041030 226041031 1025734018#0 1025734019#0 1025734020#0 1025734020#3 814278019#0 1136391284#0 420907908#0 968513231#0 226041027#0 1207834766 1198594029#0 194926851#0 1198594030#0 1027189508 452322756#3 1136391284#0 846142552#0 846142553#0 420494981#0 1051744070#0 464516471#4 464516471#7 464516471#10 464516471#13 1211049194#0 569345538#0 569345539#0 1059314985#0 226041030 226041031 1025734018#0 1025734019#0 1025734020#0 1025734020#3 814278019#0 1136391284#0 420907908#0 968513231#0 226041027#0 1207834766 1198594029#0 194926851#0 1198594030#0 1027189508 1027189507 1049888072 420907903 420907906 194920158#8 1136460176#0 420908138#0 5670867#0 5673497#0 441405435#0 1023236297#0 569345531#0 569345535#0 46538335#0 569345536#0 569345537#0 569345537#3 569345537#6 46521993#0 458180197#0 5671709#0 420905130#0 46538371#0 812949647#0 812949647#3 420892271#0 5671276#0 1025734018#0 1025734019#0 1025734020#0 1025734020#3 814278019#0 1136391284#0 420907908#0 968513231#0 226041027#0 1198594027 1117867028 464516471#0"/>
    </vehicle>
    <vehicle id="2" depart="1.00">
        <route edges="384178816#3 5672036#0 464516471#7 464516471#10 464516471#13 1211049194#0 569345537#0 569345537#3 420905130#0 46538371#0 812949647#0 812949647#3 420892271#0 5671276#0 1025734018#0 1025734019#0 1025734020#0 1025734020#3 814278019#0 1136391284#0 420907908#0 968513231#0 968513229#0 1021047632#0 194926855#0 -542259076#5 125480075#0 1198594026#0 1207834766 1198594029#0 194926851#0 846142553#0 420494981#0 1051744070#0 464516471#4 464516471#7 464516471#10 542258337#0 1051745205#0 569345540#3 167922071#0 483360105#0 397795463#0 682360554#0 397795464#0 569345543#0 1049845754#0 1198594026#0 1198594027 1117867028 464516471#0 464516471#2 464516471#4 464516471#7 464516471#10 542258337#0 1051745205#0 46443656#0 46443656#3 420907906 1207834765#0 226041031 1025734018#0 1025734019#0 1025734020#0 1025734020#3 814278019#0 1136391284#0 846142552#0 846142553#0 420494981#0 1051744070#0 464516471#4 464516471#7 464516471#10 464516471#13 1211049194#0 569345537#0 717625447#3 1165644579#0 458180191#3 46538335#0 569345536#0 569345537#0 569345537#3 420905130#0 46538371#0 1136460180#0 1136460181#0 812949648#0 226041030 226041031 1025734018#0 1025734019#0 1025734020#0 1025734020#3 814278019#0 1136391284#0 420907908#0 968513231#0 968513229#0 1021047632#0 194926855#0 -542259076#5 -525729008#5 525729008#0 125480075#0 1198594026#0 1207834766 1198594029#0 194926851#0 846142553#0 420494981#0 1051744070#0 464516471#4 464516471#7 464516471#10 464516471#13 1211049194#0 569345537#0 569345537#3 569345537#6 569345537#9 499172074#0 499172074#4 196116976#4 1267505843#0 1267505842#0 1136460180#0"/>
    </vehicle>
    <vehicle id="3" depart="1.00">
        <route edges="324118554#0 382740985#0 46538371#0 1136460180#0 1136460181#0 812949648#0 226041030 1027189510#0 1027189509#2 420890028 420890024#0 324118558#0 1267505842#0 1136460180#0 1136460181#0 812949648#0 1136460179#0 1136460176#0 420908138#0 1211049194#0 569345538#0 569345539#0 1059314985#0 226041030 226041031 1025734018#0 1025734019#0 1025734020#0 1025734020#3 814278019#0 1136391284#0 420907908#0 968513231#0 968513229#0 1021047632#0 194926855#0 -542259076#5 125480075#0 1198594026#0 1207834766 1198594029#0 194926851#0 1198594030#0 1027189508 1027189507 1049888072 420907903 420907906 194920158#8 1136460176#0 420908138#0 1211049194#0 569345537#0 569345537#3 569345537#6 569345537#9 499172074#0 496989355#6 382740985#0 382740985#3 717625447#0 569345537#3 569345537#6 569345537#9 499172074#0 499172074#4 196116976#4 1267505843#0 1267505842#0 812949647#0 812949647#3 420892271#0 5671276#0 1025734018#0 1025734019#0 1025734020#0 1025734020#3 814278019#0 1136391284#0 420907908#0 968513231#0 226041027#0 1207834766 1198594029#0 194926851#0 1198594030#0 1027189508 452322756#3 1136391283#0 460585328#4 460585328#7 1308875367#0 1308875366#2 808190587#0 965833822#1 5671276#0 1025734018#0 1025734019#0 194920158#5 194920158#8 1136460176#0 420908138#0 5670867#0 458180190#0 384178816#0 5671629#0 496993762#0 1051743127#0 458180184#0"/>
    </vehicle>
    <vehicle id="4" depart="1.00">
        <route edges="5671709#0 420905130#0 382740985#3 1023136586#0 588157337#0 420908138#0 5670867#0 458180190#0 384178816#0 5671629#0 496993762#0 1051743127#0 458180184#0 384178816#0 384178816#3 5672036#0 464516471#7 464516471#10 464516471#13 5670867#0 5673497#0 441405435#0 1023236297#0 569345531#0 569345535#0 46538335#0 569345536#0 569345537#0 569345537#3 569345537#6 569345537#9 499172074#0 499172074#4 196116976#4 1267505843#0 1267505842#0 1136460180#0 1136460181#0 812949648#0 1136460179#0 1136460176#0 420908138#0 5670867#0 458180190#0 384178816#0 5671629#0 496993762#0 1051743127#0 458180184#0 5670114#0 542258337#0 1051745205#0 46443656#0 46443656#3 420907906 1207834765#0 226041031 1025734018#0 1025734019#0 1025734020#0 1025734020#3 5671115#5 663612305 1049888072 420907903 46443656#7 1025734020#3 814278019#0 1136391284#0 846142552#0 846142553#0 420494981#0 1051744070#0 464516471#4 464516471#7 464516471#10 464516471#13 1211049194#0 569345538#0 569345539#0 1059314985#0 226041030 1027189510#0 965833822#8 812949648#0 1136460179#0 1136460176#0 420908138#0 1211049194#0 569345537#0 569345537#3 420905130#0 46538371#0"/>
    </vehicle>
    <vehicle id="5" depart="1.00">
        <route edges="226041030 1027189510#0 1027189509#2 420890028 420890024#0 324118558#0 324118554#0 226041032#0 569345537#9 541350711#0 541350711#3 496986969#0 496989355#0 496989355#3 499172074#4 196116976#4 1267505843#0 1267505842#0 1136460180#0 1136460181#0 812949648#0 1136460179#0 1136460177#0 46443656#3 420907906 194920158#8 1136460176#0 569345540#0 569345540#3 167922071#0 483360105#0 397795463#0 1117867040#1 194926851#0 846142553#0 420494981#0 1051744070#0 464516471#4 464516471#7 464516471#10 464516471#13 1211049194#0 569345537#0 569345537#3 420905130#0 46538371#0 1136460180#0 1136460181#0 812949648#0 1136460179#0 1136460176#0 420908138#0 5670867#0 458180190#0 384178816#0 5671629#0 496993762#0 1051743127#0 458180184#0 5670114#0 464516471#13 1211049194#0 569345537#0 569345537#3 569345537#6 569345537#9 541350711#0 541350711#3 496986969#0 5672752#0 -5672752#1 -496986969#3 497258109#0 -497258109#2 496986969#0 496989355#0 496989355#3 499172074#4 196116976#4 1267505843#0 1267505842#0 812949647#0 812949647#3 420892271#0 5671276#0 1025734018#0 1025734019#0 194920158#5 194920158#8 1136460176#0 420908138#0 1211049194#0 569345537#0 569345537#3 569345537#6 46521993#0 458180197#0 458180191#0 458180191#3 458180191#6 458180190#0 5670114#0 542258337#0 1051745205#0 569345540#3 167922071#0 483360105#0 397795463#0 682360554#0 397795464#0 569345544#0 525729008#0 125480075#0 1198594026#0 1207834766 1198594029#0 194926851#0 1198594030#0 1027189508 452322756#3 1136391283#0 460585328#4 5671115#2 814278019#0 1136391284#0 846142552#0 846142553#0 420494981#0 1051744070#0 464516471#4 464516471#7 464516471#10 464516471#13 1211049194#0 569345537#0 569345537#3 569345537#6 569345537#9 541350711#0 541350711#3 496986969#0 496989355#0 618990022#5"/>
    </vehicle>
    <vehicle id="6" depart="1.00">
        <route edges="384178816#3 5672036#0 464516471#7 464516471#10 464516471#13 1211049194#0 569345537#0 569345537#3 420905130#0 46538371#0 812949647#0 420890028 420890024#0 324118558#0 1267505842#0 812949647#0 812949647#3 420892271#0 5671276#0 1025734018#0 1025734019#0 1025734020#0 1025734020#3 814278019#0 1136391284#0 846142552#0 846142553#0 420494981#0 1051744070#0 464516471#4 464516471#7 464516471#10 542258337#0 1051745205#0 569345540#3 167922071#0 483360105#0 397795463#0 682360554#0 397795464#0 569345543#0 1049845754#0 1198594026#0 1198594027 397795464#0 569345543#0 1049845754#0 1198594026#0 1207834766 1198594029#0 194926851#0 1198594030#0 1027189508 1027189507 1049888072 420907903 420907906 1207834765#0 226041031 814278021#0 808190587#0 965833822#1 5671276#0 1025734018#0 1025734019#0 194920158#5 194920158#8 1136460176#0 420908138#0 5670867#0 5673497#0 441405435#0 1023236297#0 569345531#0 569345535#0 458180191#6 458180190#0 5670114#0 542258337#0 1051745205#0 569345540#3 167922071#0 483360105#0 397795463#0 1117867040#1 194926851#0 846142553#0 420494981#0 1051744070#0 464516471#4 464516471#7 464516471#10 464516471#13 1211049194#0 569345537#0 569345537#3 569345537#6 569345537#9 541350711#0 541350711#3 496986969#0 496989355#0 496989355#3 499172074#4 196116976#4 1267505843#0 1267505842#0 812949647#0 812949647#3 420892271#0 5671276#0 1025734018#0 1025734019#0 1025734020#0 1025734020#3 814278019#0 1136391284#0 846142552#0 1198594030#0 1027189508 1027189507 1049888072 420907903 420907906 194920158#8 1136460176#0 420908138#0 5670867#0 458180190#0 384178816#0 5671629#0 496993762#0 1051743127#0 458180184#0 5670114#0 464516471#13 1211049194#0 569345537#0 569345537#3 420905130#0 46538371#0 812949647#0 812949647#3 420892271#0 5671276#0 1025734018#0 1025734019#0 1025734020#0 46443656#9 1308875367#0 194920158#2"/>
    </vehicle>
    <vehicle id="7" depart="1.00">
        <route edges="496989355#3 499172074#4 196116976#4 1267505843#0 1267505842#0 812949647#0 812949647#3 420892271#0 5671276#0 1025734018#0 1025734019#0 1025734020#0 1025734020#3 814278019#0 1136391284#0 846142552#0 846142553#0 420494981#0 1051744070#0 464516471#4 464516471#7 464516471#10 542258337#0 1051745205#0 46443656#0 46443656#3 420907906 194920158#8 1136460176#0 420908138#0 5670867#0 5673497#0 441405435#0 1023236297#0 569345531#0 569345535#0 458180191#6 458180190#0 5670114#0 464516471#13 1211049194#0 569345538#0 569345539#0 1059314985#0 1136460179#0 1136460177#0 972926362#0 167922074#0 167922071#0 483360105#0 397795463#0 1117867040#1 194926851#0 1198594030#0 1027189508 1027189507 1049888072 420907903 46443656#7 1025734020#3 5671115#5 663612305 1049888072 420907903 420907906 194920158#8 1136460176#0 420908138#0 1211049194#0 569345537#0 569345537#3 420905130#0 46538371#0 812949647#0 420890028 420890024#0 324118558#0 1267505842#0 1136460180#0 1136460181#0 812949648#0 1136460179#0 1136460176#0 569345540#0 569345540#3 167922071#0 483360105#0 397795463#0 1117867040#1 194926851#0 1198594030#0 1027189508 452322756#3 1136391284#0 420907908#0 968513231#0 968513229#0 1021047632#0 194926855#0 525729009#0 1025734022#0 226041023 1031879418#0 505317789#0 542257430#0 195743210 1043336433#0 1025734022#0 226041023 1031879418#0 505317789#0 542257430#0 195743345#0 420907902#0 125480075#0 1198594026#0 1207834766 1198594029#0 194926851#0 846142553#0 420494981#0 1051744070#0 464516471#4 464516471#7 464516471#10 464516471#13 1211049194#0 569345537#0 569345537#3 569345537#6 46521993#0 458180197#0"/>
    </vehicle>
    <vehicle id="8" depart="1.00">
        <route edges="464516471#2 464516471#4 464516471#7 464516471#10 542258337#0 1051745205#0 569345540#3 167922071#0 483360105#0 397795463#0 682360554#0 397795464#0 569345543#0 1049845754#0 1198594026#0 1207834766 1198594029#0 194926851#0 1198594030#0 1027189508 1027189507 1049888072 420907903 420907906 1207834765#0 1027189510#0 1027189509#2 420890028 420890024#0 324118558#0 1267505842#0 812949647#0 812949647#3 420892271#0 5671276#0 1025734018#0 1025734019#0 1025734020#0 1025734020#3 814278019#0 1136391284#0 420907908#0 968513231#0 968513229#0 1021047632#0 194926855#0 525729009#0 1025734022#0 226041023 1031879418#0 505317789#0 542257430#0 195743345#0 420907902#0 125480075#0 1198594026#0 1207834766 1198594029#0 194926851#0 1198594030#0 1027189508 1027189507 1049888072 420907903 420907906 1207834765#0 1027189510#0 1027189509#2 420890028 420890024#0 324118558#0 324118554#0 382740985#0 46538371#0 812949647#0 812949647#3 420892271#0 5671276#0 1025734018#0 1025734019#0 1025734020#0 1025734020#3 814278019#0 1136391284#0 846142552#0 1198594030#0 1027189508 1027189507 1049888072 420907903 46443656#7 1025734020#3 814278019#0 1136391284#0 846142552#0 846142553#0 420494981#0 1051744070#0 464516471#4 464516471#7 464516471#10 542258337#0 1051745205#0 569345540#3 167922071#0 483360105#0 397795463#0 1117867040#1 1198594028#0 1051744778#0 968513231#0 968513229#0 1021047632#0 194926855#0 -542259076#5 125480075#0 1198594026#0 1207834766 1198594029#0 1198594028#0 1051744778#0 968513231#0 226041027#0 1207834766 1198594029#0 194926851#0 1198594030#0 1027189508 1027189507 1049888072 420907903 420907906 1207834765#0 1027189510#0 1027189509#2 420890028 420890024#0"/>
    </vehicle>
    <vehicle id="9" depart="1.00">
        <route edges="496993762#0 1051743127#0 458180184#0 5670114#0 464516471#13 1211049194#0 569345537#0 569345537#3 569345537#6 569345537#9 541350711#0 541350711#3 496986969#0 496989355#0 496989355#3 499172074#4 196116976#4 1267505843#0 1267505842#0 812949647#0 812949647#3 420892271#0 5671276#0 1025734018#0 1025734019#0 1025734020#0 1025734020#3 814278019#0 1136391284#0 420907908#0 968513231#0 968513229#0 1021047632#0 194926855#0 525729009#0 1025734022#0 226041023 1031879418#0 505317789#0 542257430#0 195743210 1043336433#0 1025734022#0 226041023 1031879418#0 505317789#0 542257430#0 195743345#0 420907902#0 125480075#0 1198594026#0 1207834766 1198594029#0 194926851#0 846142553#0 420494981#0 1051744070#0 464516471#4 464516471#7 464516471#10 464516471#13 1211049194#0 569345538#0 569345539#0 588157337#0 569345540#0 569345540#3 167922071#0 483360105#0 397795463#0 1117867040#1 1198594028#0 1051744778#0 968513231#0 968513229#0 1021047632#0 194926855#0 -542259076#5 125480075#0 1198594026#0 1207834766 1198594029#0 194926851#0 846142553#0 420494981#0 1051744070#0 464516471#4 464516471#7 464516471#10 464516471#13 5670867#0 5673497#0 441405435#0 1023236297#0 569345531#0 569345535#0 46538335#0 569345536#0 569345537#0 717625447#3 1165644579#0 458180191#3 458180191#6 458180190#0 5670114#0 542258337#0 1051745205#0 46443656#0 46443656#3 420907906 194920158#8 1136460176#0 420908138#0 1211049194#0 569345537#0 569345537#3 569345537#6 569345537#9 541350711#0 541350711#3 496986969#0 496989355#0 496989355#3 499172074#4 196116976#4 1267505843#0 1267505842#0 812949647#0 812949647#3 420892271#0 5671276#0 1025734018#0 1025734019#0 1025734020#0 46443656#9 1308875367#0 1308875366#2"/>
    </vehicle>
    <vehicle id="10" depart="1.00">
        <route edges="1165644579#0 458180191#3 46538335#0 569345536#0 569345537#0 569345537#3 420905130#0 46538371#0 812949647#0 812949647#3 420892271#0 5671276#0 1025734018#0 1025734019#0 1025734020#0 46443656#9 1308875367#0 194920158#2 194920158#5 194920158#8 1136460176#0 420908138#0 1211049194#0 569345537#0 569345537#3 569345537#6 569345537#9 541350711#0 541350711#3 496986969#0 496989355#0 618990022#5 541350711#3 496986969#0 496989355#0 496989355#3 499172074#4 196116976#4 1267505843#0 1267505842#0 1136460180#0 1136460181#0 812949648#0 1136460179#0 1136460177#0 972926362#0 167922074#0 167922071#0 452322757#0 452322756#0 1027189507 226041028#0 626514137#0 452322756#0 1027189507 1049888072 420907903 420907906 1207834765#0 1027189510#0 1027189509#2 420890028 420890024#0 420890025#0 420890029#0 618990022#1 196116976#1 196116976#4 1267505843#0 1267505842#0 812949647#0 812949647#3 420892271#0 5671276#0 1025734018#0 1025734019#0 1025734020#0 46443656#9 1308875367#0 1308875366#2 808190587#0 965833822#1 5671276#0 1025734018#0 1025734019#0 1025734020#0 1025734020#3 814278019#0 1136391284#0 846142552#0 1198594030#0 1027189508 452322756#3 1136391284#0 420907908#0 968513231#0 968513229#0 1021047632#0 194926855#0 -542259076#5 -525729008#5 525729008#0 125480075#0 1198594026#0 1207834766 1198594029#0 1198594028#0"/>
    </vehicle>
    <vehicle id="11" depart="1.00">
        <route edges="569345537#0 717625447#3 1165644579#0 458180191#3 458180191#6 458180190#0 5670114#0 542258337#0 1051745205#0 46443656#0 46443656#3 420907906 1207834765#0 226041031 1025734018#0 1025734019#0 1025734020#0 1025734020#3 814278019#0 1136391284#0 420907908#0 968513231#0 968513229#0 1021047632#0 194926855#0 525729009#0 1025734022#0 226041023 1031879418#0 505317789#0 542257430#0 195743210 1043336433#0 1025734022#0 226041023 1031879418#0 505317789#0 542257430#0 195743345#0 420907902#0 125480075#0 1198594026#0 1207834766 1198594029#0 194926851#0 846142553#0 420494981#0 1051744070#0 464516471#4 464516471#7 464516471#10 464516471#13 1211049194#0 569345537#0 569345537#3 420905130#0 46538371#0 812949647#0 812949647#3 420892271#0 5671276#0 814278021#0 808190587#0 965833822#1 5671276#0 1025734018#0 1025734019#0 194920158#5 194920158#8 1136460176#0 420908138#0 5670867#0 5673497#0 441405435#0 1023236297#0 569345531#0 569345535#0 458180191#6 458180190#0 384178816#0 384178816#3 5672036#0 464516471#7 226041029#0 5671629#0 496993762#0 1051743127#0 458180184#0 5670114#0 464516471#13 1211049194#0 569345537#0 569345537#3 420905130#0 46538371#0 812949647#0 812949647#3 420892271#0 5671276#0 1025734018#0 1025734019#0 1025734020#0 1025734020#3 814278019#0 1136391283#0 460585328#4 460585328#7 1308875367#0 194920158#2 1025734020#0 1025734020#3 814278019#0 1136391284#0 846142552#0 846142553#0 397795463#0 682360554#0 397795464#0 569345543#0 1049845754#0 1198594026#0 1207834766 1198594029#0 194926851#0 1198594030#0 1027189508"/>
    </vehicle>
    <vehicle id="12" depart="1.00">
        <route edges="194920158#5 194920158#8 1136460176#0 569345540#0 569345540#3 167922071#0 483360105#0 397795463#0 1117867040#1 1198594028#0 1051744778#0 968513231#0 226041027#0 1207834766 1198594029#0 194926851#0 846142553#0 420494981#0 1051744070#0 464516471#4 464516471#7 464516471#10 464516471#13 5670867#0 458180190#0 5670114#0 464516471#13 1211049194#0 569345537#0 569345537#3 420905130#0 46538371#0 812949647#0 420890028 420890024#0 324118558#0 324118554#0 226041032#0 46521993#0 458180197#0 458180191#0 458180191#3 46538335#0 569345536#0 569345537#0 569345537#3 420905130#0 46538371#0 812949647#0 812949647#3 420892271#0 5671276#0 1025734018#0 1025734019#0 1025734020#0 46443656#9 1308875367#0 194920158#2 194920158#5 194920158#8 1136460176#0 420908138#0 1211049194#0 569345537#0 569345537#3 569345537#6 46521993#0 458180197#0 458180191#0 458180191#3 458180191#6 458180190#0 384178816#0 5671629#0 496993762#0 458180185#0 441405435#0 1023236297#0 569345531#0 569345535#0 458180191#6 458180190#0 5670114#0 542258337#0 1051745205#0 569345540#3 167922071#0 483360105#0 397795463#0 1117867040#1 1198594028#0 1051744778#0 968513231#0 226041027#0 1207834766 1198594029#0 194926851#0 846142553#0 420494981#0 1051744070#0 464516471#4 464516471#7 464516471#10 464516471#13 5670867#0 5673497#0 441405435#0"/>
    </vehicle>
    <vehicle id="13" depart="1.00">
        <route edges="382740985#0 46538371#0 812949647#0 812949647#3 420892271#0 5671276#0 1025734018#0 1025734019#0 1025734020#0 46443656#9 1308875367#0 194920158#2 1025734020#0 1025734020#3 814278019#0 1136391284#0 420907908#0 968513231#0 968513229#0 1021047632#0 194926855#0 -542259076#5 542259076#0 -542259076#5 125480075#0 1198594026#0 1207834766 1198594029#0 194926851#0 1198594030#0 1027189508 1027189507 1049888072 420907903 420907906 1207834765#0 1027189510#0 1027189509#2 420890028 420890024#0 420890025#0 420890029#0 618990022#1 196116976#1 196116976#4 1267505843#0 1267505842#0 812949647#0 812949647#3 420892271#0 5671276#0 1025734018#0 1025734019#0 1025734020#0 1025734020#3 5671115#5 663612305 1049888072 420907903 420907906 1207834765#0 1027189510#0 1027189509#2 420890028 420890024#0 324118558#0 324118554#0 382740985#0 46538371#0 1136460180#0 1136460181#0 812949648#0 1136460179#0 1136460176#0 420908138#0 5670867#0 458180190#0 384178816#0 384178816#3 5672036#0 464516471#7 464516471#10 464516471#13 1211049194#0 569345537#0 569345537#3 420905130#0 46538371#0 812949647#0 812949647#3 420892271#0 5671276#0 1025734018#0 1025734019#0 1025734020#0 46443656#9 1308875367#0 194920158#2 1025734020#0 1025734020#3 814278019#0 1136391284#0 846142552#0 846142553#0 420494981#0 1051744070#0 464516471#4 464516471#7 464516471#10 464516471#13 1211049194#0 569345537#0 569345537#3 569345537#6 569345537#9 541350711#0 541350711#3 497258108#0 497258108#2 1211049195#0"/>
    </vehicle>
    <vehicle id="14" depart="1.00">
        <route edges="1222356565#0 1222356566#0 499172074#0 499172074#4 196116976#4 1267505843#0 1267505842#0 812949647#0 812949647#3 420892271#0 5671276#0 1025734018#0 1025734019#0 194920158#5 194920158#8 1136460176#0 420908138#0 1211049194#0 569345537#0 569345537#3 569345537#6 569345537#9 499172074#0 499172074#4 196116976#4 1267505843#0 1267505842#0 812949647#0 812949647#3 420892271#0 5671276#0 1025734018#0 1025734019#0 1025734020#0 46443656#9 1308875367#0 1308875366#2 808190587#0 965833822#1 5671276#0 1025734018#0 1025734019#0 1025734020#0 1025734020#3 814278019#0 1136391284#0 420907908#0 968513231#0 968513229#0 1021047632#0 194926855#0 -542259076#5 125480075#0 194926846#0 1021047632#0 194926855#0 -542259076#5 125480075#0 1198594026#0 1207834766 1198594029#0 194926851#0 1198594030#0 1027189508 1027189507 1049888072 420907903 420907906 1207834765#0 1027189510#0 1027189509#2 420890028 420890024#0 324118558#0 1267505842#0 812949647#0 420890028 420890024#0 420890025#0 420890029#0 618990022#1 196116976#1 196116976#4 1267505843#0 324118554#0 382740985#0 46538371#0 812949647#0 812949647#3 420892271#0 5671276#0 1025734018#0 1025734019#0 1025734020#0 1025734020#3 814278019#0 1136391284#0 846142552#0 1198594030#0 1027189508 1027189507 1049888072 420907903 420907906 1207834765#0 1027189510#0 965833822#8 717625448#0 1023136586#0 1059314985#0 226041030 226041031 1025734018#0 1025734019#0 1025734020#0 1025734020#3 814278019#0 1136391284#0 420907908#0 968513231#0 968513229#0 1021047632#0 194926855#0 525729009#0 1025734022#0 226041023 1031879418#0 505317789#0 542257430#0 195743345#0 420907902#0 125480075#0 1198594026#0 1207834766 1198594029#0 194926851#0 846142553#0 420494981#0 1051744070#0 464516471#4 464516471#7 464516471#10 464516471#13 1211049194#0 569345537#0 569345537#3 420905130#0 46538371#0 1136460180#0 1136460181#0"/>
    </vehicle>
    <vehicle id="15" depart="1.00">
        <route edges="458180184#0 5670114#0 542258337#0 1051745205#0 569345540#3 167922071#0 483360105#0 397795463#0 1117867040#1 194926851#0 1198594030#0 1027189508 452322756#3 1136391283#0 460585328#4 460585328#7 1308875367#0 194920158#2 1025734020#0 1025734020#3 814278019#0 1136391284#0 846142552#0 846142553#0 420494981#0 1051744070#0 464516471#4 464516471#7 226041029#0 5671629#0 496993762#0 1051743127#0 458180184#0 5670114#0 464516471#13 1211049194#0 569345537#0 569345537#3 569345537#6 569345537#9 541350711#0 541350711#3 496986969#0 496989355#0 496989355#3 499172074#4 196116976#4 1267505843#0 1267505842#0 1136460180#0 1136460181#0 812949648#0 1136460179#0 1136460176#0 420908138#0 5670867#0 458180190#0 5670114#0 542258337#0 1051745205#0 569345540#3 167922073#0 464516471#10 464516471#13 1211049194#0 569345537#0 569345537#3 569345537#6 46521993#0 458180197#0 5671709#0 420905130#0 46538371#0 812949647#0 812949647#3 420892271#0 5671276#0 1025734018#0 1025734019#0 1025734020#0 1025734020#3 814278019#0 1136391284#0 846142552#0 846142553#0 420494981#0 1051744070#0 464516471#4 464516471#7 464516471#10 464516471#13 1211049194#0 569345537#0 569345537#3 420905130#0 46538371#0 812949647#0 812949647#3 420892271#0 5671276#0 1025734018#0 1025734019#0 1025734020#0 46443656#9 1308875367#0 194920158#2 194920158#5 194920158#8 1136460176#0 420908138#0 1211049194#0 569345537#0 569345537#3 569345537#6 569345537#9 541350711#0 541350711#3 496986969#0 496989355#0 496989355#3 499172074#4 196116976#4 1267505843#0 1267505842#0 812949647#0 812949647#3 420892271#0 5671276#0 1025734018#0 1025734019#0 1025734020#0 1025734020#3 814278019#0 1136391284#0 846142552#0 1198594030#0 1027189508 1027189507 1049888072 420907903 420907906 194920158#8 1136460176#0 420908138#0 1211049194#0 569345537#0 569345537#3 569345537#6 569345537#9 541350711#0 541350711#3"/>
    </vehicle>
    <vehicle id="16" depart="1.00">
        <route edges="1136460181#0 812949648#0 226041030 1027189510#0 1027189509#2 420890028 420890024#0 324118558#0 324118554#0 382740985#0 46538371#0 1136460180#0 1136460181#0 812949648#0 1136460179#0 1136460176#0 420908138#0 5670867#0 458180190#0 384178816#0 5671629#0 496993762#0 1051743127#0 458180184#0 5670114#0 542258337#0 1051745205#0 569345540#3 167922071#0 483360105#0 397795463#0 1117867040#1 1198594028#0 1051744778#0 968513231#0 968513229#0 1021047632#0 194926855#0 525729009#0 1025734022#0 226041023 1031879418#0 505317789#0 542257430#0 195743210 1043336433#0 1025734022#0 226041023 1031879418#0 505317789#0 542257430#0 195743345#0 420907902#0 125480075#0 1198594026#0 1207834766 1198594029#0 194926851#0 846142553#0 420494981#0 1051744070#0 464516471#4 464516471#7 464516471#10 464516471#13 1211049194#0 569345537#0 569345537#3 569345537#6 569345537#9 541350711#0 541350711#3 496986969#0 496989355#0 496989355#3 499172074#4 196116976#4 1267505843#0 1267505842#0 1136460180#0 1136460181#0 812949648#0 1136460179#0 1136460176#0 420908138#0 5670867#0 458180190#0 384178816#0 5671629#0 496993762#0 1051743127#0 458180184#0 5670114#0 464516471#13 1211049194#0 569345537#0 569345537#3 420905130#0 46538371#0 812949647#0 812949647#3 420892271#0 5671276#0 1025734018#0 1025734019#0 1025734020#0 1025734020#3 814278019#0 1136391283#0 460585328#4 460585328#7 1308875367#0 194920158#2 194920158#5 194920158#8 1136460176#0 569345540#0 569345540#3 167922071#0 452322757#0 452322756#0 1027189507 226041028#0 167922074#0 167922073#0 464516471#10 464516471#13 1211049194#0 569345537#0 569345537#3 569345537#6 569345537#9 499172074#0 499172074#4 196116976#4 1267505843#0 1267505842#0 1136460180#0 1136460181#0 812949648#0 226041030 1027189510#0 965833822#8"/>
    </vehicle>
    <vehicle id="17" depart="1.00">
        <route edges="812949648#0 226041030 226041031 1025734018#0 1025734019#0 1025734020#0 1025734020#3 814278019#0 1136391284#0 420907908#0 968513231#0 968513229#0 1021047632#0 194926855#0 525729009#0 1025734022#0 226041023 1031879418#0 505317789#0 542257430#0 195743345#0 420907902#0 125480075#0 1198594026#0 1207834766 1198594029#0 194926851#0 1198594030#0 1027189508 1027189507 1049888072 420907903 420907906 1207834765#0 1027189510#0 1027189509#2 420890028 420890024#0 324118558#0 324118554#0 226041032#0 569345537#9 541350711#0 541350711#3 496986969#0 496989355#0 496989355#3 499172074#4 196116976#4 1267505843#0 1267505842#0 812949647#0 812949647#3 420892271#0 5671276#0 1025734018#0 1025734019#0 194920158#5 194920158#8 1136460176#0 569345540#0 569345540#3 167922073#0 464516471#10 464516471#13 1211049194#0 569345537#0 569345537#3 420905130#0 46538371#0 812949647#0 812949647#3 420892271#0 5671276#0 1025734018#0 1025734019#0 194920158#5 194920158#8 1136460176#0 420908138#0 1211049194#0 569345537#0 569345537#3 569345537#6 46521993#0 458180197#0 458180191#0 458180191#3 458180191#6 458180190#0 384178816#0 5671629#0 496993762#0 1051743127#0 458180184#0 5670114#0 464516471#13 1211049194#0 569345537#0 569345537#3 569345537#6 569345537#9 541350711#0 541350711#3 496986969#0 496989355#0 496989355#3 499172074#4 196116976#4 1267505843#0 1267505842#0 812949647#0 812949647#3 420892271#0 5671276#0 1025734018#0 1025734019#0 1025734020#0 46443656#9 1308875367#0 194920158#2 1025734020#0 1025734020#3 814278019#0 1136391284#0 420907908#0 968513231#0 968513229#0 1021047632#0 194926855#0 525729009#0"/>
    </vehicle>
    <vehicle id="18" depart="1.00">