<?xml version="1.0" encoding="UTF-8"?>

<!-- generated on 2024-09-02 22:01:55.322806 by osmWebWizard.py cb87dbd69
<configuration>
    <net-file value="/home/rubensas/UM/utils/2024-09-02-22-01-49/osm.net.xml.gz"/>
    <output-trip-file value="/home/rubensas/UM/utils/2024-09-02-22-01-49/osm.passenger.trips.xml"/>
    <route-file value="/home/rubensas/UM/utils/2024-09-02-22-01-49/osm.passenger.rou.xml"/>
    <prefix value="veh"/>
    <trip-attributes value="departLane=&quot;best&quot;"/>
    <fringe-start-attributes value="departSpeed=&quot;max&quot;"/>
    <vehicle-class value="passenger"/>
    <lanes value="True"/>
    <fringe-factor value="5"/>
    <allow-fringe.min-length value="1000.0"/>
    <via-edge-types value="highway.motorway,highway.motorway_link,highway.trunk_link,highway.primary_link,highway.secondary_link,highway.tertiary_link"/>
    <min-distance value="300.0"/>
    <min-distance.fringe value="10.0"/>
    <remove-loops value="True"/>
    <validate value="True"/>
    <insertion-density value="50.0"/>
</configuration>
-->

<!-- generated on 2024-09-02 22:01:55 by Eclipse SUMO duarouter Version 1.20.0
<configuration xmlns:xsi="http://www.w3.org/2001/XMLSchema-instance" xsi:noNamespaceSchemaLocation="http://sumo.dlr.de/xsd/duarouterConfiguration.xsd">

    <input>
        <net-file value="/home/rubensas/UM/utils/2024-09-02-22-01-49/osm.net.xml.gz"/>
        <route-files value="/home/rubensas/UM/utils/2024-09-02-22-01-49/osm.passenger.trips.xml"/>
    </input>

    <output>
        <output-file value="/home/rubensas/UM/utils/2024-09-02-22-01-49/osm.passenger.trips.xml.tmp"/>
        <alternatives-output value="NUL"/>
        <write-trips value="true"/>
    </output>

    <processing>
        <remove-loops value="true"/>
    </processing>

    <time>
        <begin value="0.0"/>
        <end value="3600.0"/>
    </time>

    <report>
        <no-warnings value="true"/>
        <ignore-errors value="true"/>
        <no-step-log value="true"/>
    </report>

</configuration>
-->

<routes xmlns:xsi="http://www.w3.org/2001/XMLSchema-instance" xsi:noNamespaceSchemaLocation="http://sumo.dlr.de/xsd/routes_file.xsd">
    <vType id="veh_passenger" vClass="passenger"/>
    <trip id="veh0" type="veh_passenger" depart="0.00" departLane="best" departSpeed="max" from="460585328#1" to="-167922077#1"/>
    <trip id="veh1" type="veh_passenger" depart="1.38" departLane="best" departSpeed="max" from="167922077#0" to="1267505842#0"/>
    <trip id="veh2" type="veh_passenger" depart="2.77" departLane="best" departSpeed="max" from="496986970#0" to="496992867#0"/>
    <trip id="veh3" type="veh_passenger" depart="4.15" departLane="best" from="569345537#3" to="1027189508"/>
    <trip id="veh4" type="veh_passenger" depart="5.53" departLane="best" departSpeed="max" from="324118557#0" to="-167922077#1"/>
    <trip id="veh5" type="veh_passenger" depart="6.91" departLane="best" from="1211049194#0" to="439933933"/>
    <trip id="veh6" type="veh_passenger" depart="8.30" departLane="best" departSpeed="max" from="-497258109#2" to="1207834765#0"/>
    <trip id="veh7" type="veh_passenger" depart="9.68" departLane="best" departSpeed="max" from="460585328#1" to="384178816#0"/>
    <trip id="veh8" type="veh_passenger" depart="11.06" departLane="best" from="1211049194#0" to="460585328#7"/>
    <trip id="veh9" type="veh_passenger" depart="12.44" departLane="best" from="542258337#0" to="-1136952921#1"/>
    <trip id="veh10" type="veh_passenger" depart="13.83" departLane="best" from="542257430#0" to="497258109#0"/>
    <trip id="veh11" type="veh_passenger" depart="15.21" departLane="best" departSpeed="max" from="195743336#0" to="1136391283#3"/>
    <trip id="veh12" type="veh_passenger" depart="16.59" departLane="best" from="1025734020#3" to="1027189510#0"/>
    <trip id="veh13" type="veh_passenger" depart="17.97" departLane="best" from="542258337#0" to="511699175#0"/>
    <trip id="veh14" type="veh_passenger" depart="19.36" departLane="best" departSpeed="max" from="420906743#0" to="814278019#0"/>
    <trip id="veh15" type="veh_passenger" depart="20.74" departLane="best" departSpeed="max" from="226041025#0" to="458180185#0"/>
    <trip id="veh16" type="veh_passenger" depart="22.12" departLane="best" departSpeed="max" from="5671115#0" to="464516471#10"/>
    <trip id="veh17" type="veh_passenger" depart="23.51" departLane="best" from="5672036#0" to="458180197#0"/>
    <trip id="veh18" type="veh_passenger" depart="24.89" departLane="best" departSpeed="max" from="46482602#1" to="1023136586#0"/>
    <trip id="veh21" type="veh_passenger" depart="29.04" departLane="best" departSpeed="max" from="460585328#1" to="397795464#0"/>
    <trip id="veh22" type="veh_passenger" depart="30.42" departLane="best" departSpeed="max" from="226041025#0" to="1211049195#0"/>
    <trip id="veh23" type="veh_passenger" depart="31.80" departLane="best" departSpeed="max" from="167922077#0" to="626514137#0"/>
    <trip id="veh24" type="veh_passenger" depart="33.18" departLane="best" departSpeed="max" from="460585328#1" to="464515890"/>
    <trip id="veh25" type="veh_passenger" depart="34.57" departLane="best" from="1136460180#0" to="511699175#0"/>
    <trip id="veh26" type="veh_passenger" depart="35.95" departLane="best" from="1136460176#0" to="420890024#0"/>
    <trip id="veh27" type="veh_passenger" depart="37.33" departLane="best" from="968513229#0" to="464516471#7"/>
    <trip id="veh28" type="veh_passenger" depart="38.71" departLane="best" from="420907902#0" to="496993762#0"/>
    <trip id="veh29" type="veh_passenger" depart="40.10" departLane="best" departSpeed="max" from="5671115#0" to="525729010#0"/>
    <trip id="veh30" type="veh_passenger" depart="41.48" departLane="best" from="1222356565#0" to="496986969#0"/>
    <trip id="veh31" type="veh_passenger" depart="42.86" departLane="best" departSpeed="max" from="195743209#0" to="194926855#0"/>
    <trip id="veh32" type="veh_passenger" depart="44.25" departLane="best" from="1207834765#0" to="682360554#0"/>
    <trip id="veh33" type="veh_passenger" depart="45.63" departLane="best" departSpeed="max" from="569345525#0" to="308322447#1"/>
    <trip id="veh34" type="veh_passenger" depart="47.01" departLane="best" departSpeed="max" from="460585328#1" to="420890028"/>
    <trip id="veh35" type="veh_passenger" depart="48.39" departLane="best" from="569345540#3" to="420907902#0"/>
    <trip id="veh36" type="veh_passenger" depart="49.78" departLane="best" departSpeed="max" from="167922077#0" to="167922074#0"/>
    <trip id="veh38" type="veh_passenger" depart="52.54" departLane="best" from="988984235#0" to="439933933"/>
    <trip id="veh39" type="veh_passenger" depart="53.92" departLane="best" from="1025734020#3" to="1023136586#0"/>
    <trip id="veh40" type="veh_passenger" depart="55.31" departLane="best" from="1027189509#2" to="464516471#2"/>
    <trip id="veh41" type="veh_passenger" depart="56.69" departLane="best" from="541350711#0" to="420899372#0"/>
    <trip id="veh42" type="veh_passenger" depart="58.07" departLane="best" from="1021047632#0" to="420890024#0"/>
    <trip id="veh43" type="veh_passenger" depart="59.45" departLane="best" from="972926362#0" to="441405436#0"/>
    <trip id="veh44" type="veh_passenger" depart="60.84" departLane="best" from="812949648#0" to="5673497#0"/>
    <trip id="veh46" type="veh_passenger" depart="63.60" departLane="best" from="464516471#13" to="441405436#0"/>
    <trip id="veh47" type="veh_passenger" depart="64.99" departLane="best" departSpeed="max" from="167922077#0" to="464516471#7"/>
    <trip id="veh48" type="veh_passenger" depart="66.37" departLane="best" from="1027189509#2" to="420906753#0"/>
    <trip id="veh49" type="veh_passenger" depart="67.75" departLane="best" from="397795463#0" to="808190587#0"/>
    <trip id="veh50" type="veh_passenger" depart="69.13" departLane="best" departSpeed="max" from="569345525#0" to="194926851#0"/>
    <trip id="veh51" type="veh_passenger" depart="70.52" departLane="best" departSpeed="max" from="420892272#0" to="1165644579#0"/>
    <trip id="veh52" type="veh_passenger" depart="71.90" departLane="best" from="569345540#3" to="569345537#0"/>
    <trip id="veh53" type="veh_passenger" depart="73.28" departLane="best" from="194926851#0" to="464516471#7"/>
    <trip id="veh54" type="veh_passenger" depart="74.66" departLane="best" from="458180190#0" to="1136391283#3"/>
    <trip id="veh57" type="veh_passenger" depart="78.81" departLane="best" from="167922076#0" to="308322447#1"/>
    <trip id="veh58" type="veh_passenger" depart="80.19" departLane="best" from="569345531#0" to="5671115#5"/>
    <trip id="veh59" type="veh_passenger" depart="81.58" departLane="best" from="194926855#0" to="1025734018#0"/>
    <trip id="veh60" type="veh_passenger" depart="82.96" departLane="best" from="1025734020#0" to="439768850#0"/>
    <trip id="veh61" type="veh_passenger" depart="84.34" departLane="best" from="1023236297#0" to="525729010#0"/>
    <trip id="veh63" type="veh_passenger" depart="87.11" departLane="best" from="420890025#0" to="458180185#0"/>
    <trip id="veh64" type="veh_passenger" depart="88.49" departLane="best" departSpeed="max" from="167922077#0" to="569345537#0"/>
    <trip id="veh65" type="veh_passenger" depart="89.87" departLane="best" departSpeed="max" from="324118557#0" to="1211049195#0"/>
    <trip id="veh66" type="veh_passenger" depart="91.26" departLane="best" from="1198594027" to="308322447#1"/>
    <trip id="veh67" type="veh_passenger" depart="92.64" departLane="best" from="972926362#0" to="46522000#0"/>
    <trip id="veh68" type="veh_passenger" depart="94.02" departLane="best" from="382740985#3" to="439933933"/>
    <trip id="veh69" type="veh_passenger" depart="95.40" departLane="best" from="1031879418#0" to="1267505842#0"/>
    <trip id="veh70" type="veh_passenger" depart="96.79" departLane="best" departSpeed="max" from="195743336#0" to="460585328#7"/>
    <trip id="veh71" type="veh_passenger" depart="98.17" departLane="best" from="1222356566#0" to="125480075#0"/>
    <trip id="veh72" type="veh_passenger" depart="99.55" departLane="best" from="1023236297#0" to="464516471#2"/>
    <trip id="veh73" type="veh_passenger" depart="100.93" departLane="best" from="1222356565#0" to="569345544#0"/>
    <trip id="veh74" type="veh_passenger" depart="102.32" departLane="best" from="5671709#0" to="1025734020#3"/>
    <trip id="veh75" type="veh_passenger" depart="103.70" departLane="best" from="1207834765#0" to="1051744070#0"/>
    <trip id="veh76" type="veh_passenger" depart="105.08" departLane="best" departSpeed="max" from="618990022#0" to="458180191#6"/>
    <trip id="veh77" type="veh_passenger" depart="106.46" departLane="best" from="420890025#0" to="525729010#0"/>
    <trip id="veh78" type="veh_passenger" depart="107.85" departLane="best" from="542258337#0" to="1198594030#0"/>
    <trip id="veh79" type="veh_passenger" depart="109.23" departLane="best" from="1025734022#0" to="420906753#0"/>
    <trip id="veh80" type="veh_passenger" depart="110.61" departLane="best" departSpeed="max" from="324118557#0" to="420907903"/>
    <trip id="veh81" type="veh_passenger" depart="112.00" departLane="best" departSpeed="max" from="496986970#0" to="496989355#6"/>
    <trip id="veh83" type="veh_passenger" depart="114.76" departLane="best" from="5672036#0" to="167922074#0"/>
    <trip id="veh84" type="veh_passenger" depart="116.14" departLane="best" departSpeed="max" from="1136952921#0" to="420906753#0"/>
    <trip id="veh86" type="veh_passenger" depart="118.91" departLane="best" from="1308875367#0" to="618990022#11"/>
    <trip id="veh87" type="veh_passenger" depart="120.29" departLane="best" departSpeed="max" from="420906743#0" to="1023236297#0"/>
    <trip id="veh88" type="veh_passenger" depart="121.67" departLane="best" from="988984235#0" to="5671276#0"/>
    <trip id="veh89" type="veh_passenger" depart="123.06" departLane="best" from="812949647#3" to="618990022#11"/>
    <trip id="veh90" type="veh_passenger" depart="124.44" departLane="best" from="5671115#2" to="1136460177#0"/>
    <trip id="veh93" type="veh_passenger" depart="128.59" departLane="best" departSpeed="max" from="226041025#0" to="968513229#0"/>
    <trip id="veh94" type="veh_passenger" depart="129.97" departLane="best" from="397795464#0" to="420899372#0"/>
    <trip id="veh95" type="veh_passenger" depart="131.35" departLane="best" from="717625447#3" to="972926362#0"/>
    <trip id="veh96" type="veh_passenger" depart="132.74" departLane="best" from="420907902#0" to="499172074#4"/>
    <trip id="veh97" type="veh_passenger" depart="134.12" departLane="best" from="1117867038#0" to="226041027#0"/>
    <trip id="veh98" type="veh_passenger" depart="135.50" departLane="best" from="812949647#3" to="458180197#0"/>
    <trip id="veh99" type="veh_passenger" depart="136.88" departLane="best" departSpeed="max" from="420906743#0" to="525729009#0"/>
    <trip id="veh100" type="veh_passenger" depart="138.27" departLane="best" departSpeed="max" from="-5672752#1" to="460585328#4"/>
    <trip id="veh101" type="veh_passenger" depart="139.65" departLane="best" departSpeed="max" from="420892272#0" to="5672752#0"/>
    <trip id="veh102" type="veh_passenger" depart="141.03" departLane="best" from="1136391283#0" to="812949648#0"/>
    <trip id="veh103" type="veh_passenger" depart="142.41" departLane="best" from="1025734018#0" to="1198594029#0"/>
    <trip id="veh104" type="veh_passenger" depart="143.80" departLane="best" departSpeed="max" from="458180186#0" to="496989355#6"/>
    <trip id="veh105" type="veh_passenger" depart="145.18" departLane="best" from="569345537#3" to="167922074#0"/>
    <trip id="veh106" type="veh_passenger" depart="146.56" departLane="best" departSpeed="max" from="458180186#0" to="464516471#10"/>
    <trip id="veh107" type="veh_passenger" depart="147.94" departLane="best" from="324118554#0" to="460585328#4"/>
    <trip id="veh108" type="veh_passenger" depart="149.33" departLane="best" departSpeed="max" from="420906743#0" to="541350711#3"/>
    <trip id="veh109" type="veh_passenger" depart="150.71" departLane="best" from="1198594029#0" to="499172074#12"/>
    <trip id="veh110" type="veh_passenger" depart="152.09" departLane="best" from="464516471#0" to="226041029#0"/>
    <trip id="veh111" type="veh_passenger" depart="153.48" departLane="best" from="1023236297#0" to="420907902#0"/>
    <trip id="veh113" type="veh_passenger" depart="156.24" departLane="best" departSpeed="max" from="167922077#0" to="618990022#2"/>
    <trip id="veh114" type="veh_passenger" depart="157.62" departLane="best" from="569345535#0" to="569345537#3"/>
    <trip id="veh115" type="veh_passenger" depart="159.01" departLane="best" departSpeed="max" from="226041025#0" to="1136391284#0"/>
    <trip id="veh116" type="veh_passenger" depart="160.39" departLane="best" departSpeed="max" from="5671115#0" to="497258109#0"/>
    <trip id="veh117" type="veh_passenger" depart="161.77" departLane="best" from="458180191#0" to="968513229#0"/>
    <trip id="veh118" type="veh_passenger" depart="163.15" departLane="best" departSpeed="max" from="460585328#1" to="-1136952921#1"/>
    <trip id="veh119" type="veh_passenger" depart="164.54" departLane="best" departSpeed="max" from="5670124" to="226041028#0"/>
    <trip id="veh120" type="veh_passenger" depart="165.92" departLane="best" from="460585328#7" to="663612305"/>
    <trip id="veh122" type="veh_passenger" depart="168.68" departLane="best" from="1027189509#2" to="458180185#0"/>
    <trip id="veh123" type="veh_passenger" depart="170.07" departLane="best" departSpeed="max" from="167922077#0" to="464515890"/>
    <trip id="veh124" type="veh_passenger" depart="171.45" departLane="best" from="46538335#0" to="569345538#0"/>
    <trip id="veh125" type="veh_passenger" depart="172.83" departLane="best" departSpeed="max" from="460585328#1" to="194926851#0"/>
    <trip id="veh126" type="veh_passenger" depart="174.22" departLane="best" from="420890029#0" to="569345544#0"/>
    <trip id="veh127" type="veh_passenger" depart="175.60" departLane="best" from="5671115#2" to="1027189509#2"/>
    <trip id="veh130" type="veh_passenger" depart="179.75" departLane="best" departSpeed="max" from="460585328#1" to="194926851#0"/>
    <trip id="veh131" type="veh_passenger" depart="181.13" departLane="best" departSpeed="max" from="496986970#0" to="458180185#0"/>
    <trip id="veh132" type="veh_passenger" depart="182.51" departLane="best" from="324118558#0" to="-1136952921#1"/>
    <trip id="veh133" type="veh_passenger" depart="183.89" departLane="best" from="1025734018#0" to="569345537#6"/>
    <trip id="veh134" type="veh_passenger" depart="185.28" departLane="best" from="569345537#9" to="384178816#0"/>
    <trip id="veh135" type="veh_passenger" depart="186.66" departLane="best" departSpeed="max" from="1106482765#0" to="1049888072"/>
    <trip id="veh136" type="veh_passenger" depart="188.04" departLane="best" from="194926855#0" to="569345540#3"/>
    <trip id="veh137" type="veh_passenger" depart="189.42" departLane="best" from="541350711#0" to="5673497#0"/>
    <trip id="veh138" type="veh_passenger" depart="190.81" departLane="best" from="569345537#6" to="1211049195#0"/>
    <trip id="veh139" type="veh_passenger" depart="192.19" departLane="best" from="1308875367#0" to="1031879418#0"/>
    <trip id="veh140" type="veh_passenger" depart="193.57" departLane="best" from="505317789#0" to="569345537#6"/>
    <trip id="veh142" type="veh_passenger" depart="196.34" departLane="best" from="1117867038#0" to="618990022#11"/>
    <trip id="veh143" type="veh_passenger" depart="197.72" departLane="best" from="5673497#0" to="814278021#0"/>
    <trip id="veh144" type="veh_passenger" depart="199.10" departLane="best" from="-542259076#5" to="569345537#6"/>
    <trip id="veh145" type="veh_passenger" depart="200.49" departLane="best" departSpeed="max" from="-497258109#2" to="511699175#0"/>
    <trip id="veh146" type="veh_passenger" depart="201.87" departLane="best" from="542257430#0" to="569345535#0"/>
    <trip id="veh147" type="veh_passenger" depart="203.25" departLane="best" departSpeed="max" from="569345525#0" to="5672752#0"/>
    <trip id="veh148" type="veh_passenger" depart="204.63" departLane="best" from="1211049194#0" to="5670253"/>
    <trip id="veh149" type="veh_passenger" depart="206.02" departLane="best" from="420356172#0" to="569345537#9"/>
    <trip id="veh150" type="veh_passenger" depart="207.40" departLane="best" from="541350711#0" to="1267505843#0"/>
    <trip id="veh151" type="veh_passenger" depart="208.78" departLane="best" departSpeed="max" from="-497258109#2" to="1198594030#0"/>
    <trip id="veh152" type="veh_passenger" depart="210.16" departLane="best" departSpeed="max" from="195743336#0" to="458180191#6"/>
    <trip id="veh154" type="veh_passenger" depart="212.93" departLane="best" departSpeed="max" from="460585328#1" to="420890029#0"/>
    <trip id="veh155" type="veh_passenger" depart="214.31" departLane="best" from="846142553#0" to="441405436#0"/>
    <trip id="veh157" type="veh_passenger" depart="217.08" departLane="best" from="812949648#0" to="1165644579#0"/>
    <trip id="veh158" type="veh_passenger" depart="218.46" departLane="best" from="808190587#0" to="194926851#0"/>
    <trip id="veh159" type="veh_passenger" depart="219.84" departLane="best" from="1027189509#2" to="420906753#0"/>
    <trip id="veh160" type="veh_passenger" depart="221.23" departLane="best" departSpeed="max" from="458180186#0" to="439933933"/>
    <trip id="veh161" type="veh_passenger" depart="222.61" departLane="best" departSpeed="max" from="226041025#0" to="458180197#0"/>
    <trip id="veh162" type="veh_passenger" depart="223.99" departLane="best" from="167922071#0" to="497258109#0"/>
    <trip id="veh163" type="veh_passenger" depart="225.37" departLane="best" from="167922076#0" to="618990022#11"/>
    <trip id="veh164" type="veh_passenger" depart="226.76" departLane="best" departSpeed="max" from="420906743#0" to="499172074#4"/>
    <trip id="veh165" type="veh_passenger" depart="228.14" departLane="best" from="226041023" to="1025734020#3"/>
    <trip id="veh166" type="veh_passenger" depart="229.52" departLane="best" from="460585328#7" to="324118554#0"/>
    <trip id="veh167" type="veh_passenger" depart="230.90" departLane="best" departSpeed="max" from="195743209#0" to="5672752#0"/>
    <trip id="veh168" type="veh_passenger" depart="232.29" departLane="best" from="46538371#0" to="226041029#0"/>
    <trip id="veh171" type="veh_passenger" depart="236.44" departLane="best" from="1049845754#0" to="420899372#0"/>
    <trip id="veh172" type="veh_passenger" depart="237.82" departLane="best" from="618990022#1" to="496992867#0"/>
    <trip id="veh173" type="veh_passenger" depart="239.20" departLane="best" from="569345537#9" to="464516471#0"/>
    <trip id="veh174" type="veh_passenger" depart="240.58" departLane="best" from="194926851#0" to="458180184#0"/>
    <trip id="veh175" type="veh_passenger" depart="241.97" departLane="best" from="167922076#0" to="196116976#1"/>
    <trip id="veh176" type="veh_passenger" depart="243.35" departLane="best" from="324118554#0" to="458180197#0"/>
    <trip id="veh177" type="veh_passenger" depart="244.73" departLane="best" departSpeed="max" from="460585328#1" to="420907903"/>
    <trip id="veh179" type="veh_passenger" depart="247.50" departLane="best" from="420890025#0" to="569345540#3"/>
    <trip id="veh180" type="veh_passenger" depart="248.88" departLane="best" from="541350711#0" to="1136460180#0"/>
    <trip id="veh181" type="veh_passenger" depart="250.26" departLane="best" from="1025734020#0" to="439933933"/>
    <trip id="veh182" type="veh_passenger" depart="251.64" departLane="best" departSpeed="max" from="460585328#1" to="382740985#0"/>
    <trip id="veh183" type="veh_passenger" depart="253.03" departLane="best" departSpeed="max" from="5670124" to="525729009#0"/>
    <trip id="veh184" type="veh_passenger" depart="254.41" departLane="best" from="464516471#0" to="812949647#0"/>
    <trip id="veh185" type="veh_passenger" depart="255.79" departLane="best" from="1198594026#0" to="-167922077#1"/>
    <trip id="veh186" type="veh_passenger" depart="257.18" departLane="best" from="1308875366#2" to="420907908#0"/>
    <trip id="veh188" type="veh_passenger" depart="259.94" departLane="best" from="1165644579#0" to="497258108#2"/>
    <trip id="veh189" type="veh_passenger" depart="261.32" departLane="best" from="420892271#0" to="167922073#0"/>
    <trip id="veh190" type="veh_passenger" depart="262.71" departLane="best" departSpeed="max" from="460585328#1" to="-1136952921#1"/>
    <trip id="veh191" type="veh_passenger" depart="264.09" departLane="best" from="496989355#3" to="525729010#0"/>
    <trip id="veh192" type="veh_passenger" depart="265.47" departLane="best" from="1027189509#2" to="420899372#0"/>
    <trip id="veh193" type="veh_passenger" depart="266.85" departLane="best" departSpeed="max" from="1136952921#0" to="812949647#0"/>
    <trip id="veh194" type="veh_passenger" depart="268.24" departLane="best" from="420892273#0" to="1023236297#0"/>
    <trip id="veh195" type="veh_passenger" depart="269.62" departLane="best" from="1308875367#0" to="5672752#0"/>
    <trip id="veh196" type="veh_passenger" depart="271.00" departLane="best" from="397795464#0" to="542257430#0"/>
    <trip id="veh197" type="veh_passenger" depart="272.38" departLane="best" from="46443656#0" to="968513229#0"/>
    <trip id="veh198" type="veh_passenger" depart="273.77" departLane="best" departSpeed="max" from="458180186#0" to="808190587#0"/>
    <trip id="veh199" type="veh_passenger" depart="275.15" departLane="best" from="569345537#3" to="464516471#0"/>
    <trip id="veh200" type="veh_passenger" depart="276.53" departLane="best" from="46538371#0" to="439933933"/>
    <trip id="veh201" type="veh_passenger" depart="277.91" departLane="best" departSpeed="max" from="5671115#0" to="384178816#0"/>
    <trip id="veh202" type="veh_passenger" depart="279.30" departLane="best" from="569345537#6" to="511699175#0"/>
    <trip id="veh203" type="veh_passenger" depart="280.68" departLane="best" from="420890025#0" to="194920158#8"/>
    <trip id="veh204" type="veh_passenger" depart="282.06" departLane="best" from="1308875366#2" to="464516471#4"/>
    <trip id="veh206" type="veh_passenger" depart="284.83" departLane="best" from="458180197#0" to="195743210"/>
    <trip id="veh207" type="veh_passenger" depart="286.21" departLane="best" from="1025734018#0" to="195743345#0"/>
    <trip id="veh208" type="veh_passenger" depart="287.59" departLane="best" departSpeed="max" from="167922077#0" to="308322447#1"/>
    <trip id="veh209" type="veh_passenger" depart="288.98" departLane="best" departSpeed="max" from="420906743#0" to="1051745205#0"/>
    <trip id="veh210" type="veh_passenger" depart="290.36" departLane="best" departSpeed="max" from="46482602#1" to="1025734020#0"/>
    <trip id="veh213" type="veh_passenger" depart="294.51" departLane="best" departSpeed="max" from="324118557#0" to="569345543#0"/>
    <trip id="veh214" type="veh_passenger" depart="295.89" departLane="best" from="452322757#0" to="497258108#2"/>
    <trip id="veh215" type="veh_passenger" depart="297.27" departLane="best" from="5671276#0" to="525729010#0"/>
    <trip id="veh216" type="veh_passenger" depart="298.65" departLane="best" from="195743336#2" to="525729009#0"/>
    <trip id="veh217" type="veh_passenger" depart="300.04" departLane="best" from="324118554#0" to="525729008#0"/>
    <trip id="veh218" type="veh_passenger" depart="301.42" departLane="best" departSpeed="max" from="420906743#0" to="46443656#9"/>
    <trip id="veh219" type="veh_passenger" depart="302.80" departLane="best" from="1211049194#0" to="125480075#0"/>
    <trip id="veh220" type="veh_passenger" depart="304.19" departLane="best" from="382740985#3" to="-167922077#1"/>
    <trip id="veh221" type="veh_passenger" depart="305.57" departLane="best" departSpeed="max" from="195743336#0" to="496992867#0"/>
    <trip id="veh223" type="veh_passenger" depart="308.33" departLane="best" from="420890024#0" to="1049888072"/>
    <trip id="veh224" type="veh_passenger" depart="309.72" departLane="best" from="458180191#6" to="-167922077#1"/>
    <trip id="veh225" type="veh_passenger" depart="311.10" departLane="best" from="226041032#0" to="458180191#0"/>
    <trip id="veh226" type="veh_passenger" depart="312.48" departLane="best" departSpeed="max" from="-497258109#2" to="464516471#7"/>
    <trip id="veh227" type="veh_passenger" depart="313.86" departLane="best" from="1051744070#0" to="420907902#0"/>
    <trip id="veh228" type="veh_passenger" depart="315.25" departLane="best" departSpeed="max" from="-5672752#1" to="420890024#0"/>
    <trip id="veh229" type="veh_passenger" depart="316.63" departLane="best" from="1207834765#0" to="308322447#1"/>
    <trip id="veh230" type="veh_passenger" depart="318.01" departLane="best" from="496993762#0" to="420890024#0"/>
    <trip id="veh231" type="veh_passenger" depart="319.39" departLane="best" from="496989355#3" to="5671115#5"/>
    <trip id="veh232" type="veh_passenger" depart="320.78" departLane="best" from="1308875367#0" to="1027189507"/>
    <trip id="veh233" type="veh_passenger" depart="322.16" departLane="best" departSpeed="max" from="-497258109#2" to="452322756#0"/>
    <trip id="veh234" type="veh_passenger" depart="323.54" departLane="best" from="988984235#0" to="384178816#0"/>
    <trip id="veh235" type="veh_passenger" depart="324.93" departLane="best" departSpeed="max" from="460585328#1" to="525729010#0"/>
    <trip id="veh236" type="veh_passenger" depart="326.31" departLane="best" departSpeed="max" from="460585328#1" to="525729009#0"/>
    <trip id="veh237" type="veh_passenger" depart="327.69" departLane="best" departSpeed="max" from="-497258109#2" to="1136391283#3"/>
    <trip id="veh238" type="veh_passenger" depart="329.07" departLane="best" from="1049845754#0" to="496989355#3"/>
    <trip id="veh239" type="veh_passenger" depart="330.46" departLane="best" from="420907906" to="125480075#0"/>
    <trip id="veh240" type="veh_passenger" depart="331.84" departLane="best" from="464516471#7" to="525729010#0"/>
    <trip id="veh241" type="veh_passenger" depart="333.22" departLane="best" from="1136460179#0" to="464515890"/>
    <trip id="veh243" type="veh_passenger" depart="335.99" departLane="best" departSpeed="max" from="5670124" to="814278018"/>
    <trip id="veh244" type="veh_passenger" depart="337.37" departLane="best" from="1027189509#2" to="-167922077#1"/>
    <trip id="veh245" type="veh_passenger" depart="338.75" departLane="best" departSpeed="max" from="195743209#0" to="496992867#0"/>
    <trip id="veh246" type="veh_passenger" depart="340.13" departLane="best" from="717625448#0" to="420890029#0"/>
    <trip id="veh247" type="veh_passenger" depart="341.52" departLane="best" from="46521993#0" to="1025734022#0"/>
    <trip id="veh248" type="veh_passenger" depart="342.90" departLane="best" from="464516471#2" to="464516471#13"/>
    <trip id="veh249" type="veh_passenger" depart="344.28" departLane="best" from="1027189508" to="525729010#0"/>
    <trip id="veh250" type="veh_passenger" depart="345.67" departLane="best" from="505317789#0" to="384178816#0"/>
    <trip id="veh252" type="veh_passenger" depart="348.43" departLane="best" departSpeed="max" from="420892272#0" to="382740985#3"/>
    <trip id="veh253" type="veh_passenger" depart="349.81" departLane="best" from="5671115#2" to="5670253"/>
    <trip id="veh254" type="veh_passenger" depart="351.20" departLane="best" from="1027189508" to="812949648#0"/>
    <trip id="veh255" type="veh_passenger" depart="352.58" departLane="best" departSpeed="max" from="460585328#1" to="5671115#2"/>
    <trip id="veh256" type="veh_passenger" depart="353.96" departLane="best" departSpeed="max" from="46482602#1" to="420906753#0"/>
    <trip id="veh257" type="veh_passenger" depart="355.34" departLane="best" departSpeed="max" from="496986970#0" to="814278018"/>