<?xml version="1.0" encoding="UTF-8"?>

<!-- generated on 2024-09-02 22:01:53 by Eclipse SUMO netconvert Version 1.20.0
<configuration xmlns:xsi="http://www.w3.org/2001/XMLSchema-instance" xsi:noNamespaceSchemaLocation="http://sumo.dlr.de/xsd/netconvertConfiguration.xsd">

    <input>
        <type-files value="${SUMO_HOME}/data/typemap/osmNetconvert.typ.xml"/>
        <osm-files value="osm_bbox.osm.xml.gz"/>
    </input>

    <output>
        <output-file value="osm.net.xml.gz"/>
        <output.street-names value="true"/>
        <output.original-names value="true"/>
    </output>

    <projection>
        <proj.utm value="true"/>
    </projection>

    <processing>
        <geometry.remove value="true"/>
        <roundabouts.guess value="true"/>
    </processing>

    <tls_building>
        <tls.discard-simple value="true"/>
        <tls.join value="true"/>
        <tls.guess-signals value="true"/>
        <tls.default-type value="actuated"/>
    </tls_building>

    <ramp_guessing>
        <ramps.guess value="true"/>
    </ramp_guessing>

    <edge_removal>
        <keep-edges.by-vclass value="passenger"/>
    </edge_removal>

    <junctions>
        <junctions.join value="true"/>
        <junctions.corner-detail value="5"/>
    </junctions>

</configuration>
-->

<net version="1.20" junctionCornerDetail="5" limitTurnSpeed="5.50" xmlns:xsi="http://www.w3.org/2001/XMLSchema-instance" xsi:noNamespaceSchemaLocation="http://sumo.dlr.de/xsd/net_file.xsd">

    <location netOffset="-584919.24,-4512122.07" convBoundary="0.00,0.00,1632.16,1178.10" origBoundary="-73.993926,40.755594,-73.974636,40.766182" projParameter="+proj=utm +zone=18 +ellps=WGS84 +datum=WGS84 +units=m +no_defs"/>

    <type id="highway.living_street" priority="2" numLanes="1" speed="2.78" disallow="tram rail_urban rail rail_electric rail_fast ship container cable_car subway aircraft wheelchair scooter drone" oneway="0"/>
    <type id="highway.primary" priority="12" numLanes="2" speed="27.78" disallow="tram rail_urban rail rail_electric rail_fast ship container cable_car subway aircraft wheelchair scooter drone" oneway="0"/>
    <type id="highway.residential" priority="3" numLanes="1" speed="13.89" disallow="tram rail_urban rail rail_electric rail_fast ship container cable_car subway aircraft wheelchair scooter drone" oneway="0"/>
    <type id="highway.secondary" priority="11" numLanes="1" speed="27.78" disallow="tram rail_urban rail rail_electric rail_fast ship container cable_car subway aircraft wheelchair scooter drone" oneway="0"/>
    <type id="highway.tertiary" priority="10" numLanes="1" speed="22.22" disallow="tram rail_urban rail rail_electric rail_fast ship container cable_car subway aircraft wheelchair scooter drone" oneway="0"/>
    <type id="highway.unclassified" priority="4" numLanes="1" speed="13.89" disallow="tram rail_urban rail rail_electric rail_fast ship container cable_car subway aircraft wheelchair scooter drone" oneway="0"/>

    <edge id=":10171120541_0" function="internal">
        <lane id=":10171120541_0_0" index="0" disallow="tram rail_urban rail rail_electric rail_fast ship container cable_car subway aircraft wheelchair scooter drone" speed="3.65" length="4.67" shape="11.01,362.63 9.58,362.50 8.84,361.98 8.82,361.09 9.49,359.82"/>
    </edge>
    <edge id=":10594155706_0" function="internal">
        <lane id=":10594155706_0_0" index="0" disallow="tram rail_urban rail rail_electric rail_fast ship container cable_car subway aircraft wheelchair scooter drone" speed="22.22" length="8.21" shape="914.60,842.23 913.47,840.10 912.36,838.82 911.25,837.53 910.12,835.40"/>
        <lane id=":10594155706_0_1" index="1" disallow="tram rail_urban rail rail_electric rail_fast ship container cable_car subway aircraft wheelchair scooter drone" speed="22.22" length="8.21" shape="917.57,841.03 916.44,838.90 915.33,837.62 914.22,836.34 913.09,834.21"/>
        <lane id=":10594155706_0_2" index="2" disallow="tram rail_urban rail rail_electric rail_fast ship container cable_car subway aircraft wheelchair scooter drone" speed="22.22" length="8.21" shape="917.57,841.03 916.90,838.71 916.81,837.02 916.72,835.33 916.06,833.01"/>
    </edge>
    <edge id=":10598594003_0" function="internal">
        <lane id=":10598594003_0_0" index="0" disallow="tram rail_urban rail rail_electric rail_fast ship container cable_car subway aircraft wheelchair scooter drone" speed="3.65" length="4.67" shape="680.66,-1.41 682.10,-1.28 682.83,-0.76 682.86,0.13 682.19,1.41"/>
    </edge>
    <edge id=":10842005392_0" function="internal">
        <lane id=":10842005392_0_0" index="0" disallow="tram rail_urban rail rail_electric rail_fast ship container cable_car subway aircraft wheelchair scooter drone" speed="11.18" length="8.21" shape="1448.96,496.82 1450.96,495.47 1452.11,494.22 1453.26,492.98 1455.26,491.63"/>
        <lane id=":10842005392_0_1" index="1" disallow="tram rail_urban rail rail_electric rail_fast ship container cable_car subway aircraft wheelchair scooter drone" speed="11.18" length="8.21" shape="1448.96,496.82 1451.19,495.91 1452.87,495.63 1454.54,495.36 1456.77,494.45"/>
    </edge>
    <edge id=":11191334801_0" function="internal">
        <lane id=":11191334801_0_0" index="0" disallow="tram rail_urban rail rail_electric rail_fast ship container cable_car subway aircraft wheelchair scooter drone" speed="11.18" length="8.21" shape="447.75,349.98 449.11,351.97 450.35,353.12 451.59,354.27 452.95,356.26"/>
        <lane id=":11191334801_0_1" index="1" disallow="tram rail_urban rail rail_electric rail_fast ship container cable_car subway aircraft wheelchair scooter drone" speed="11.18" length="8.21" shape="444.93,351.50 446.29,353.49 447.53,354.64 448.78,355.79 450.14,357.78"/>
        <lane id=":11191334801_0_2" index="2" disallow="tram rail_urban rail rail_electric rail_fast ship container cable_car subway aircraft wheelchair scooter drone" speed="11.18" length="8.21" shape="444.93,351.50 445.85,353.72 446.13,355.40 446.40,357.07 447.32,359.30"/>
    </edge>
    <edge id=":11220661302_0" function="internal">
        <lane id=":11220661302_0_0" index="0" disallow="tram rail_urban rail rail_electric rail_fast ship container cable_car subway aircraft wheelchair scooter drone" speed="27.78" length="3.00" width="4.62" shape="1469.75,1079.89 1471.18,1082.53"/>
        <lane id=":11220661302_0_1" index="1" disallow="tram rail_urban rail rail_electric rail_fast ship container cable_car subway aircraft wheelchair scooter drone" speed="27.78" length="3.00" width="4.62" shape="1465.68,1082.08 1467.11,1084.72"/>
        <lane id=":11220661302_0_2" index="2" disallow="tram rail_urban rail rail_electric rail_fast ship container cable_car subway aircraft wheelchair scooter drone" speed="27.78" length="3.00" width="4.62" shape="1461.61,1084.28 1463.04,1086.92"/>
        <lane id=":11220661302_0_3" index="3" disallow="tram rail_urban rail rail_electric rail_fast ship container cable_car subway aircraft wheelchair scooter drone" speed="27.78" length="3.00" width="4.62" shape="1457.54,1086.47 1458.96,1089.11"/>
    </edge>
    <edge id=":11336810277_0" function="internal">
        <lane id=":11336810277_0_0" index="0" disallow="pedestrian tram rail_urban rail rail_electric rail_fast ship container cable_car subway aircraft wheelchair scooter drone" speed="13.89" length="3.00" width="4.50" shape="1376.54,809.56 1373.91,810.99"/>
        <lane id=":11336810277_0_1" index="1" disallow="pedestrian tram rail_urban rail rail_electric rail_fast ship container cable_car subway aircraft wheelchair scooter drone" speed="13.89" length="3.00" width="4.50" shape="1374.39,805.61 1371.76,807.04"/>
    </edge>
    <edge id=":11772036952_0" function="internal">
        <lane id=":11772036952_0_0" index="0" disallow="tram rail_urban rail rail_electric rail_fast ship container cable_car subway aircraft wheelchair scooter drone" speed="22.22" length="8.21" shape="969.54,992.81 968.69,990.55 967.75,989.14 966.81,987.73 965.96,985.48"/>
        <lane id=":11772036952_0_1" index="1" disallow="tram rail_urban rail rail_electric rail_fast ship container cable_car subway aircraft wheelchair scooter drone" speed="22.22" length="8.21" shape="972.64,991.99 971.79,989.74 970.85,988.33 969.91,986.92 969.06,984.66"/>
        <lane id=":11772036952_0_2" index="2" disallow="tram rail_urban rail rail_electric rail_fast ship container cable_car subway aircraft wheelchair scooter drone" speed="22.22" length="8.21" shape="972.64,991.99 972.27,989.61 972.39,987.92 972.52,986.23 972.15,983.85"/>
    </edge>
    <edge id=":2348991701_0" function="internal">
        <lane id=":2348991701_0_0" index="0" disallow="tram rail_urban rail rail_electric rail_fast ship container cable_car subway aircraft wheelchair scooter drone" speed="27.78" length="8.21" shape="701.11,1080.18 703.11,1078.84 704.26,1077.60 705.41,1076.36 707.40,1075.00"/>
        <lane id=":2348991701_0_1" index="1" disallow="tram rail_urban rail rail_electric rail_fast ship container cable_car subway aircraft wheelchair scooter drone" speed="27.78" length="8.21" shape="701.11,1080.18 703.35,1079.28 705.02,1079.01 706.69,1078.73 708.92,1077.81"/>
    </edge>
    <edge id=":2351532388_0" function="internal">
        <lane id=":2351532388_0_0" index="0" disallow="pedestrian tram rail_urban rail rail_electric rail_fast ship container cable_car subway aircraft wheelchair scooter drone" speed="13.89" length="5.64" shape="41.29,159.90 42.59,158.91 43.25,157.93 43.91,156.94 45.22,155.96"/>
        <lane id=":2351532388_0_1" index="1" disallow="pedestrian tram rail_urban rail rail_electric rail_fast ship container cable_car subway aircraft wheelchair scooter drone" speed="13.89" length="5.64" shape="42.81,162.71 44.11,161.73 44.78,160.74 45.44,159.76 46.75,158.77"/>
    </edge>
    <edge id=":2653473655_0" function="internal">
        <lane id=":2653473655_0_0" index="0" disallow="pedestrian tram rail_urban rail rail_electric rail_fast ship container cable_car subway aircraft wheelchair scooter drone" speed="3.65" length="4.67" shape="1094.59,1146.69 1093.15,1146.56 1092.42,1146.05 1092.39,1145.16 1093.06,1143.88"/>
    </edge>
    <edge id=":4207815980_0" function="internal">
        <lane id=":4207815980_0_0" index="0" disallow="tram rail_urban rail rail_electric rail_fast ship container cable_car subway aircraft wheelchair scooter drone" speed="19.48" length="0.30" shape="800.62,993.59 800.77,993.85"/>
        <lane id=":4207815980_0_1" index="1" disallow="tram rail_urban rail rail_electric rail_fast ship container cable_car subway aircraft wheelchair scooter drone" speed="19.48" length="0.30" shape="797.82,995.13 797.96,995.39"/>
        <lane id=":4207815980_0_2" index="2" disallow="tram rail_urban rail rail_electric rail_fast ship container cable_car subway aircraft wheelchair scooter drone" speed="19.48" length="0.30" shape="795.01,996.66 795.15,996.93"/>
        <lane id=":4207815980_0_3" index="3" disallow="tram rail_urban rail rail_electric rail_fast ship container cable_car subway aircraft wheelchair scooter drone" speed="19.48" length="0.30" shape="792.20,998.20 792.35,998.46"/>
        <lane id=":4207815980_0_4" index="4" disallow="tram rail_urban rail rail_electric rail_fast ship container cable_car subway aircraft wheelchair scooter drone" speed="19.48" length="0.30" shape="789.39,999.74 789.54,1000.00"/>
    </edge>
    <edge id=":4207837423_0" function="internal">
        <lane id=":4207837423_0_0" index="0" disallow="tram rail_urban rail rail_electric rail_fast ship container cable_car subway aircraft wheelchair scooter drone" speed="27.78" length="8.65" shape="540.96,1111.16 539.36,1109.22 537.67,1108.37 535.98,1107.53 534.38,1105.59"/>
        <lane id=":4207837423_0_1" index="1" disallow="tram rail_urban rail rail_electric rail_fast ship container cable_car subway aircraft wheelchair scooter drone" speed="27.78" length="8.65" shape="543.79,1109.66 542.19,1107.72 540.50,1106.87 538.81,1106.03 537.21,1104.09"/>
        <lane id=":4207837423_0_2" index="2" disallow="tram rail_urban rail rail_electric rail_fast ship container cable_car subway aircraft wheelchair scooter drone" speed="27.78" length="8.65" shape="546.61,1108.16 545.02,1106.22 543.33,1105.38 541.63,1104.53 540.04,1102.59"/>
        <lane id=":4207837423_0_3" index="3" disallow="tram rail_urban rail rail_electric rail_fast ship container cable_car subway aircraft wheelchair scooter drone" speed="27.78" length="8.65" shape="546.61,1108.16 542.86,1101.09"/>
        <lane id=":4207837423_0_4" index="4" disallow="tram rail_urban rail rail_electric rail_fast ship container cable_car subway aircraft wheelchair scooter drone" speed="27.78" length="8.65" shape="546.61,1108.16 545.90,1105.75 546.15,1103.88 546.40,1102.00 545.69,1099.59"/>
    </edge>
    <edge id=":4207892896_0" function="internal">
        <lane id=":4207892896_0_0" index="0" disallow="tram rail_urban rail rail_electric rail_fast ship container cable_car subway aircraft wheelchair scooter drone" speed="3.65" length="4.67" shape="1413.27,1168.45 1411.84,1168.31 1411.11,1167.80 1411.08,1166.91 1411.75,1165.63"/>
    </edge>
    <edge id=":4207957613_0" function="internal">
        <lane id=":4207957613_0_0" index="0" disallow="pedestrian tram rail_urban rail rail_electric rail_fast ship container cable_car subway aircraft wheelchair scooter drone" speed="27.78" length="8.21" shape="331.46,131.15 332.81,133.14 334.06,134.29 335.30,135.44 336.65,137.43"/>
        <lane id=":4207957613_0_1" index="1" disallow="pedestrian tram rail_urban rail rail_electric rail_fast ship container cable_car subway aircraft wheelchair scooter drone" speed="27.78" length="8.21" shape="328.64,132.66 329.99,134.66 331.24,135.81 332.48,136.96 333.84,138.95"/>
        <lane id=":4207957613_0_2" index="2" disallow="pedestrian tram rail_urban rail rail_electric rail_fast ship container cable_car subway aircraft wheelchair scooter drone" speed="27.78" length="8.21" shape="325.82,134.18 327.18,136.17 328.42,137.32 329.66,138.47 331.02,140.47"/>
        <lane id=":4207957613_0_3" index="3" disallow="pedestrian tram rail_urban rail rail_electric rail_fast ship container cable_car subway aircraft wheelchair scooter drone" speed="27.78" length="8.21" shape="325.82,134.18 326.74,136.41 327.01,138.08 327.29,139.75 328.20,141.98"/>
    </edge>
    <edge id=":42428297_0" function="internal">
        <lane id=":42428297_0_0" index="0" disallow="tram rail_urban rail rail_electric rail_fast ship container cable_car subway aircraft wheelchair scooter drone" speed="6.49" length="9.01" shape="707.90,270.03 706.44,268.03 704.69,266.97 702.67,266.86 700.35,267.70"/>
    </edge>
    <edge id=":42428297_1" function="internal">
        <lane id=":42428297_1_0" index="0" disallow="tram rail_urban rail rail_electric rail_fast ship container cable_car subway aircraft wheelchair scooter drone" speed="11.18" length="11.52" shape="710.72,268.53 708.93,265.70 707.37,263.97 705.78,262.26 703.90,259.47"/>
        <lane id=":42428297_1_1" index="1" disallow="tram rail_urban rail rail_electric rail_fast ship container cable_car subway aircraft wheelchair scooter drone" speed="11.18" length="11.52" shape="713.55,267.03 711.75,264.17 710.18,262.43 708.58,260.70 706.68,257.89"/>
        <lane id=":42428297_1_2" index="2" disallow="tram rail_urban rail rail_electric rail_fast ship container cable_car subway aircraft wheelchair scooter drone" speed="11.18" length="11.52" shape="716.38,265.53 714.56,262.65 712.98,260.88 711.37,259.14 709.46,256.30"/>
        <lane id=":42428297_1_3" index="3" disallow="tram rail_urban rail rail_electric rail_fast ship container cable_car subway aircraft wheelchair scooter drone" speed="11.18" length="11.52" shape="719.20,264.03 717.37,261.12 715.78,259.34 714.16,257.58 712.24,254.71"/>
    </edge>
    <edge id=":42428297_5" function="internal">
        <lane id=":42428297_5_0" index="0" disallow="tram rail_urban rail rail_electric rail_fast ship container cable_car subway aircraft wheelchair scooter drone" speed="27.78" length="23.94" shape="721.48,256.44 700.35,267.70"/>
    </edge>
    <edge id=":42428297_6" function="internal">
        <lane id=":42428297_6_0" index="0" disallow="tram rail_urban rail rail_electric rail_fast ship container cable_car subway aircraft wheelchair scooter drone" speed="7.84" length="13.37" shape="721.48,256.44 717.32,258.30 713.93,258.89 711.31,258.23 709.46,256.30"/>
        <lane id=":42428297_6_1" index="1" disallow="tram rail_urban rail rail_electric rail_fast ship container cable_car subway aircraft wheelchair scooter drone" speed="7.06" length="10.65" shape="721.48,256.44 718.54,257.62 716.02,257.73 713.92,256.76 712.24,254.71"/>
    </edge>
    <edge id=":42428303_0" function="internal">
        <lane id=":42428303_0_0" index="0" disallow="tram rail_urban rail rail_electric rail_fast ship container cable_car subway aircraft wheelchair scooter drone" speed="6.37" length="9.86" shape="744.46,432.91 743.28,430.15 741.69,428.56 739.67,428.15 737.23,428.91"/>
    </edge>
    <edge id=":42428303_1" function="internal">
        <lane id=":42428303_1_0" index="0" disallow="tram rail_urban rail rail_electric rail_fast ship container cable_car subway aircraft wheelchair scooter drone" speed="11.18" length="11.13" shape="747.76,425.42 744.65,426.68 742.30,427.24 740.06,427.76 737.23,428.91"/>
    </edge>
    <edge id=":42428305_0" function="internal">
        <lane id=":42428305_0_0" index="0" disallow="tram rail_urban rail rail_electric rail_fast ship container cable_car subway aircraft wheelchair scooter drone" speed="2.24" length="18.38" shape="775.51,508.05 773.31,504.55 769.74,501.21 765.82,498.07 762.60,495.17"/>
    </edge>
    <edge id=":42428305_1" function="internal">
        <lane id=":42428305_1_0" index="0" disallow="tram rail_urban rail rail_electric rail_fast ship container cable_car subway aircraft wheelchair scooter drone" speed="7.53" length="10.76" shape="775.51,508.05 774.40,504.09 773.98,501.06 774.24,498.97 775.17,497.82"/>
        <lane id=":42428305_1_1" index="1" disallow="tram rail_urban rail rail_electric rail_fast ship container cable_car subway aircraft wheelchair scooter drone" speed="6.63" length="8.15" shape="775.51,508.05 774.88,505.42 774.86,503.31 775.47,501.72 776.69,500.64"/>
    </edge>
    <edge id=":42428305_3" function="internal">
        <lane id=":42428305_3_0" index="0" disallow="tram rail_urban rail rail_electric rail_fast ship container cable_car subway aircraft wheelchair scooter drone" speed="6.23" length="9.72" shape="761.95,503.15 763.98,501.57 764.77,499.71 764.31,497.58 762.60,495.17"/>
    </edge>
    <edge id=":42428305_4" function="internal">
        <lane id=":42428305_4_0" index="0" disallow="tram rail_urban rail rail_electric rail_fast ship container cable_car subway aircraft wheelchair scooter drone" speed="13.89" length="14.28" shape="761.95,503.15 765.54,500.91 767.80,499.06 770.06,497.22 773.66,495.00"/>
        <lane id=":42428305_4_1" index="1" disallow="tram rail_urban rail rail_electric rail_fast ship container cable_car subway aircraft wheelchair scooter drone" speed="13.89" length="14.28" shape="763.48,505.96 767.06,503.72 769.32,501.87 771.58,500.03 775.17,497.82"/>
        <lane id=":42428305_4_2" index="2" disallow="tram rail_urban rail rail_electric rail_fast ship container cable_car subway aircraft wheelchair scooter drone" speed="13.89" length="14.28" shape="763.48,505.96 767.30,504.16 770.08,503.28 772.86,502.41 776.69,500.64"/>
    </edge>
    <edge id=":42428307_0" function="internal">
        <lane id=":42428307_0_0" index="0" disallow="tram rail_urban rail rail_electric rail_fast ship container cable_car subway aircraft wheelchair scooter drone" speed="6.48" length="9.04" shape="795.45,583.42 793.99,581.42 792.24,580.38 790.20,580.29 787.88,581.16"/>
    </edge>
    <edge id=":42428307_1" function="internal">
        <lane id=":42428307_1_0" index="0" disallow="tram rail_urban rail rail_electric rail_fast ship container cable_car subway aircraft wheelchair scooter drone" speed="12.23" length="11.21" shape="795.45,583.42 790.17,573.54"/>
    </edge>
    <edge id=":42428307_2" function="internal">
        <lane id=":42428307_2_0" index="0" disallow="tram rail_urban rail rail_electric rail_fast ship container cable_car subway aircraft wheelchair scooter drone" speed="11.18" length="11.24" shape="797.81,575.89 787.88,581.16"/>
    </edge>
    <edge id=":42428307_3" function="internal">
        <lane id=":42428307_3_0" index="0" disallow="tram rail_urban rail rail_electric rail_fast ship container cable_car subway aircraft wheelchair scooter drone" speed="6.56" length="9.08" shape="797.81,575.89 795.46,576.71 793.40,576.59 791.64,575.53 790.17,573.54"/>
    </edge>
    <edge id=":42428308_0" function="internal">
        <lane id=":42428308_0_0" index="0" disallow="tram rail_urban rail rail_electric rail_fast ship container cable_car subway aircraft wheelchair scooter drone" speed="22.22" length="14.38" shape="829.28,657.83 827.51,653.63 826.53,650.33 825.73,647.40 824.48,644.30"/>
    </edge>
    <edge id=":42428308_1" function="internal">
        <lane id=":42428308_1_0" index="0" disallow="tram rail_urban rail rail_electric rail_fast ship container cable_car subway aircraft wheelchair scooter drone" speed="6.55" length="9.02" shape="832.17,656.46 831.38,654.07 831.50,652.01 832.54,650.28 834.51,648.87"/>
    </edge>
    <edge id=":42428308_2" function="internal">
        <lane id=":42428308_2_0" index="0" disallow="tram rail_urban rail rail_electric rail_fast ship container cable_car subway aircraft wheelchair scooter drone" speed="7.06" length="10.45" shape="820.52,652.72 823.16,650.87 824.70,648.85 825.15,646.66 824.48,644.30"/>
    </edge>
    <edge id=":42428308_3" function="internal">
        <lane id=":42428308_3_0" index="0" disallow="tram rail_urban rail rail_electric rail_fast ship container cable_car subway aircraft wheelchair scooter drone" speed="27.78" length="14.15" shape="820.52,652.72 833.04,646.02"/>
        <lane id=":42428308_3_1" index="1" disallow="tram rail_urban rail rail_electric rail_fast ship container cable_car subway aircraft wheelchair scooter drone" speed="27.78" length="14.15" shape="822.07,655.52 834.51,648.87"/>
    </edge>
    <edge id=":42428310_0" function="internal">
        <lane id=":42428310_0_0" index="0" disallow="tram rail_urban rail rail_electric rail_fast ship container cable_car subway aircraft wheelchair scooter drone" speed="6.69" length="10.03" shape="863.78,728.61 862.19,726.04 860.33,724.58 858.22,724.25 855.84,725.04"/>
    </edge>
    <edge id=":42428310_1" function="internal">
        <lane id=":42428310_1_0" index="0" disallow="tram rail_urban rail rail_electric rail_fast ship container cable_car subway aircraft wheelchair scooter drone" speed="22.22" length="14.39" shape="863.78,728.61 857.66,715.60"/>
        <lane id=":42428310_1_1" index="1" disallow="tram rail_urban rail rail_electric rail_fast ship container cable_car subway aircraft wheelchair scooter drone" speed="22.22" length="14.39" shape="866.68,727.26 860.55,714.23"/>
    </edge>
    <edge id=":42428310_3" function="internal">
        <lane id=":42428310_3_0" index="0" disallow="tram rail_urban rail rail_electric rail_fast ship container cable_car subway aircraft wheelchair scooter drone" speed="13.89" length="14.78" shape="869.51,719.49 865.25,721.50 861.89,722.69 858.92,723.66 855.84,725.04"/>
    </edge>
    <edge id=":42428310_4" function="internal">
        <lane id=":42428310_4_0" index="0" disallow="tram rail_urban rail rail_electric rail_fast ship container cable_car subway aircraft wheelchair scooter drone" speed="6.40" length="9.04" shape="867.99,716.67 865.65,717.53 863.63,717.41 861.93,716.31 860.55,714.23"/>
    </edge>
    <edge id=":42428312_0" function="internal">
        <lane id=":42428312_0_0" index="0" disallow="tram rail_urban rail rail_electric rail_fast ship container cable_car subway aircraft wheelchair scooter drone" speed="22.22" length="13.33" shape="896.31,801.24 894.87,797.56 894.25,794.91 893.70,792.22 892.43,788.47"/>
        <lane id=":42428312_0_1" index="1" disallow="tram rail_urban rail rail_electric rail_fast ship container cable_car subway aircraft wheelchair scooter drone" speed="22.22" length="13.33" shape="899.21,799.89 897.78,796.24 897.18,793.60 896.63,790.94 895.37,787.21"/>
    </edge>
    <edge id=":42428312_2" function="internal">
        <lane id=":42428312_2_0" index="0" disallow="tram rail_urban rail rail_electric rail_fast ship container cable_car subway aircraft wheelchair scooter drone" speed="6.43" length="8.02" shape="902.11,798.54 901.48,796.47 901.62,794.63 902.52,793.02 904.19,791.64"/>
    </edge>
    <edge id=":42428312_3" function="internal">
        <lane id=":42428312_3_0" index="0" disallow="tram rail_urban rail rail_electric rail_fast ship container cable_car subway aircraft wheelchair scooter drone" speed="7.71" length="12.03" shape="889.49,798.87 891.88,797.03 893.16,794.69 893.35,791.83 892.43,788.47"/>
    </edge>
    <edge id=":42428312_4" function="internal">
        <lane id=":42428312_4_0" index="0" disallow="tram rail_urban rail rail_electric rail_fast ship container cable_car subway aircraft wheelchair scooter drone" speed="11.18" length="16.40" shape="889.49,798.87 892.40,796.92 895.03,794.61 898.15,791.95 902.52,788.92"/>
        <lane id=":42428312_4_1" index="1" disallow="tram rail_urban rail rail_electric rail_fast ship container cable_car subway aircraft wheelchair scooter drone" speed="11.18" length="16.40" shape="889.49,798.87 904.19,791.64"/>
    </edge>
    <edge id=":42428313_0" function="internal">
        <lane id=":42428313_0_0" index="0" disallow="tram rail_urban rail rail_electric rail_fast ship container cable_car subway aircraft wheelchair scooter drone" speed="6.30" length="9.05" shape="927.43,873.78 926.14,871.62 924.49,870.47 922.49,870.33 920.13,871.20"/>
    </edge>
    <edge id=":42428313_1" function="internal">
        <lane id=":42428313_1_0" index="0" disallow="tram rail_urban rail rail_electric rail_fast ship container cable_car subway aircraft wheelchair scooter drone" speed="22.22" length="14.96" shape="927.43,873.78 921.73,859.93"/>
        <lane id=":42428313_1_1" index="1" disallow="tram rail_urban rail rail_electric rail_fast ship container cable_car subway aircraft wheelchair scooter drone" speed="22.22" length="14.96" shape="930.38,872.54 924.70,858.73"/>
    </edge>
    <edge id=":42428313_3" function="internal">
        <lane id=":42428313_3_0" index="0" disallow="tram rail_urban rail rail_electric rail_fast ship container cable_car subway aircraft wheelchair scooter drone" speed="27.78" length="14.95" shape="933.38,864.40 920.13,871.20"/>
        <lane id=":42428313_3_1" index="1" disallow="tram rail_urban rail rail_electric rail_fast ship container cable_car subway aircraft wheelchair scooter drone" speed="27.78" length="14.95" shape="931.98,861.53 918.61,868.38"/>
    </edge>
    <edge id=":42428313_5" function="internal">
        <lane id=":42428313_5_0" index="0" disallow="tram rail_urban rail rail_electric rail_fast ship container cable_car subway aircraft wheelchair scooter drone" speed="6.36" length="9.04" shape="931.98,861.53 929.60,862.29 927.59,862.08 925.96,860.89 924.70,858.73"/>
    </edge>
    <edge id=":42428315_0" function="internal">
        <lane id=":42428315_0_0" index="0" disallow="tram rail_urban rail rail_electric rail_fast ship container cable_car subway aircraft wheelchair scooter drone" speed="22.22" length="15.44" shape="956.68,950.16 955.76,945.73 955.37,942.63 954.79,939.59 953.29,935.36"/>
        <lane id=":42428315_0_1" index="1" disallow="tram rail_urban rail rail_electric rail_fast ship container cable_car subway aircraft wheelchair scooter drone" speed="22.22" length="15.44" shape="959.77,949.32 958.81,944.77 958.40,941.58 957.79,938.46 956.24,934.11"/>
    </edge>
    <edge id=":42428315_2" function="internal">
        <lane id=":42428315_2_0" index="0" disallow="tram rail_urban rail rail_electric rail_fast ship container cable_car subway aircraft wheelchair scooter drone" speed="7.83" length="10.58" shape="962.86,948.47 962.32,945.26 962.54,942.60 963.52,940.49 965.26,938.94"/>
    </edge>
    <edge id=":42428315_3" function="internal">
        <lane id=":42428315_3_0" index="0" disallow="tram rail_urban rail rail_electric rail_fast ship container cable_car subway aircraft wheelchair scooter drone" speed="7.43" length="11.18" shape="948.66,944.30 951.51,942.35 953.23,940.21 953.83,937.88 953.29,935.36"/>
    </edge>
    <edge id=":42428315_4" function="internal">
        <lane id=":42428315_4_0" index="0" disallow="tram rail_urban rail rail_electric rail_fast ship container cable_car subway aircraft wheelchair scooter drone" speed="27.78" length="17.15" shape="948.66,944.30 963.61,936.20"/>
        <lane id=":42428315_4_1" index="1" disallow="tram rail_urban rail rail_electric rail_fast ship container cable_car subway aircraft wheelchair scooter drone" speed="27.78" length="17.15" shape="950.06,947.18 965.26,938.94"/>
    </edge>
    <edge id=":42428321_0" function="internal">
        <lane id=":42428321_0_0" index="0" disallow="pedestrian tram rail_urban rail rail_electric rail_fast ship container cable_car subway aircraft wheelchair scooter drone" speed="6.76" length="11.86" width="9.00" shape="979.83,1032.16 978.60,1028.60 976.83,1026.54 974.52,1025.97 971.66,1026.90"/>
    </edge>
    <edge id=":42428321_1" function="internal">
        <lane id=":42428321_1_0" index="0" disallow="tram rail_urban rail rail_electric rail_fast ship container cable_car subway aircraft wheelchair scooter drone" speed="22.22" length="18.96" shape="979.83,1032.16 975.03,1013.74"/>