<?xml version="1.0" encoding="UTF-8"?>

<!-- generated on 2024-09-02 22:04:03 by Eclipse SUMO GUI Version 1.20.0
-->

<configuration xmlns:xsi="http://www.w3.org/2001/XMLSchema-instance" xsi:noNamespaceSchemaLocation="http://sumo.dlr.de/xsd/sumoConfiguration.xsd">

    <input>
        <net-file value="manhattan.net.xml"/>
        <route-files value="manhattan.rou.xml"/>
        <additional-files value="manhattan.poly.xml"/>
    </input>

</configuration>
